pcf
* control data
restart estimation
      24    13152      1       0       4    
1 1 single point
10.0 -3.0 0.3 0.03 10 9999
10.0 10.0 0.001
0.1
   50  0.005 4 4 0.005 4
1 1 1
* singular value decomposition
1
24 5e-07
0
* parameter groups
all_params relative 0.015 0.000 switch 2.0 parabolic
* parameter data
pnER	log     factor	50	0.00001	100	all_params	1	0
pnDWCf	log     factor	50	0.00001	100	all_params	1	0
pnDWCs	log     factor	50	0.00001	100	all_params	1	0
ppER	log     factor	50	0.00001	100	all_params	1	0
DRb	log     factor	50	0.00001	100	all_params	1	0
ppDRb	log     factor	50	0.00001	100	all_params	1	0
ppLCFb	log     factor	50	0.00001	100	all_params	1	0
tssDWCb	log     factor	50	0.00001	100	all_params	1	0
DRd	log     factor	50	0.00001	100	all_params	1	0
DRf	log     factor	50	0.00001	100	all_params	1	0
ppDWCf	log     factor	50	0.00001	100	all_params	1	0
tssDWCf	log     factor	50	0.00001	100	all_params	1	0
DRg	log     factor	50	0.00001	100	all_params	1	0
pnDWCg	log     factor	50	0.00001	100	all_params	1	0
ppDWCg	log     factor	50	0.00001	100	all_params	1	0
tssDWCg	log     factor	50	0.00001	100	all_params	1	0
DRm	log     factor	50	0.00001	100	all_params	1	0
DRs	log     factor	50	0.00001	100	all_params	1	0
ppDWCs	log     factor	50	0.00001	100	all_params	1	0
gullyDR	log     factor	50	0.00001	100	all_params	1	0
BEC	log     factor	50	0.00001	100	all_params	1	0
FPD	log     factor	50	0.00001	100	all_params	1	0
tssDWCs	log     factor	50	0.00001	100	all_params	1	0
tssLCFs	log     factor	50	0.00001	100	all_params	1	0
* observation groups
PBIAS_PN
PBIAS_TSS
PBIAS_PP
TSS 
PN 
PP 
* observation data
TSS_PBIAS	0	10.0	PBIAS_TSS
PN_PBAIS	0	10.0	PBIAS_PN
PP_PBAIS	0	10.0	PBIAS_PP 
TSS_1_07_2006	4749.5	3.09E-06	TSS
TSS_2_07_2006	4607.7	3.09E-06	TSS
TSS_3_07_2006	4522.8	3.09E-06	TSS
TSS_4_07_2006	4443.2	3.09E-06	TSS
TSS_5_07_2006	4358.6	3.09E-06	TSS
TSS_6_07_2006	4258.6	3.09E-06	TSS
TSS_7_07_2006	4183.4	3.09E-06	TSS
TSS_8_07_2006	4060.3	3.09E-06	TSS
TSS_9_07_2006	4140.3	3.09E-06	TSS
TSS_10_07_2006	4064	3.09E-06	TSS
TSS_11_07_2006	4118.2	3.09E-06	TSS
TSS_12_07_2006	4536.9	3.09E-06	TSS
TSS_13_07_2006	5795.2	3.09E-06	TSS
TSS_14_07_2006	5757.9	3.09E-06	TSS
TSS_15_07_2006	5183.3	3.09E-06	TSS
TSS_16_07_2006	5186.9	3.09E-06	TSS
TSS_17_07_2006	5508.5	3.09E-06	TSS
TSS_18_07_2006	5166.9	3.09E-06	TSS
TSS_19_07_2006	4978.6	3.09E-06	TSS
TSS_20_07_2006	4885.1	3.09E-06	TSS
TSS_21_07_2006	4992.2	3.09E-06	TSS
TSS_22_07_2006	5876.3	3.09E-06	TSS
TSS_23_07_2006	5861	3.09E-06	TSS
TSS_24_07_2006	5427.7	3.09E-06	TSS
TSS_25_07_2006	5242	3.09E-06	TSS
TSS_26_07_2006	5142.2	3.09E-06	TSS
TSS_27_07_2006	5066.6	3.09E-06	TSS
TSS_28_07_2006	5023.6	3.09E-06	TSS
TSS_29_07_2006	4941.5	3.09E-06	TSS
TSS_30_07_2006	4806.7	3.09E-06	TSS
TSS_31_07_2006	4681.3	3.09E-06	TSS
TSS_1_08_2006	4576	3.09E-06	TSS
TSS_2_08_2006	4475.8	3.09E-06	TSS
TSS_3_08_2006	4386.9	3.09E-06	TSS
TSS_4_08_2006	4242.8	3.09E-06	TSS
TSS_5_08_2006	4110.8	3.09E-06	TSS
TSS_6_08_2006	4015.7	3.09E-06	TSS
TSS_7_08_2006	3911.1	3.09E-06	TSS
TSS_8_08_2006	3861.8	3.09E-06	TSS
TSS_9_08_2006	3804.4	3.09E-06	TSS
TSS_10_08_2006	3739.1	3.09E-06	TSS
TSS_11_08_2006	3658.5	3.09E-06	TSS
TSS_12_08_2006	3712.2	3.09E-06	TSS
TSS_13_08_2006	4017.9	3.09E-06	TSS
TSS_14_08_2006	3826.4	3.09E-06	TSS
TSS_15_08_2006	3584.2	3.09E-06	TSS
TSS_16_08_2006	3461.7	3.09E-06	TSS
TSS_17_08_2006	3410.2	3.09E-06	TSS
TSS_18_08_2006	3374.9	3.09E-06	TSS
TSS_19_08_2006	3337.8	3.09E-06	TSS
TSS_20_08_2006	3331.1	3.09E-06	TSS
TSS_21_08_2006	3485.8	3.09E-06	TSS
TSS_22_08_2006	3472.7	3.09E-06	TSS
TSS_23_08_2006	3193.6	3.09E-06	TSS
TSS_24_08_2006	3115.3	3.09E-06	TSS
TSS_25_08_2006	3058.3	3.09E-06	TSS
TSS_26_08_2006	3008.4	3.09E-06	TSS
TSS_27_08_2006	2971.9	3.09E-06	TSS
TSS_28_08_2006	2877.6	3.09E-06	TSS
TSS_29_08_2006	2818.5	3.09E-06	TSS
TSS_30_08_2006	2787	3.09E-06	TSS
TSS_31_08_2006	2778.8	3.09E-06	TSS
TSS_1_09_2006	2790.6	3.09E-06	TSS
TSS_2_09_2006	2873.7	3.09E-06	TSS
TSS_3_09_2006	5075.2	3.09E-06	TSS
TSS_4_09_2006	23137	3.09E-06	TSS
TSS_5_09_2006	6774.6	3.09E-06	TSS
TSS_6_09_2006	5614.3	3.09E-06	TSS
TSS_7_09_2006	4840.4	3.09E-06	TSS
TSS_8_09_2006	4400.9	3.09E-06	TSS
TSS_9_09_2006	4072.5	3.09E-06	TSS
TSS_10_09_2006	3868.1	3.09E-06	TSS
TSS_11_09_2006	3731.5	3.09E-06	TSS
TSS_12_09_2006	3596.5	3.09E-06	TSS
TSS_13_09_2006	3578	3.09E-06	TSS
TSS_14_09_2006	3974.8	3.09E-06	TSS
TSS_15_09_2006	4638.1	3.09E-06	TSS
TSS_16_09_2006	3955.2	3.09E-06	TSS
TSS_17_09_2006	3637.7	3.09E-06	TSS
TSS_18_09_2006	3475.1	3.09E-06	TSS
TSS_19_09_2006	3582.8	3.09E-06	TSS
TSS_20_09_2006	3590.9	3.09E-06	TSS
TSS_21_09_2006	3448.3	3.09E-06	TSS
TSS_22_09_2006	3329.5	3.09E-06	TSS
TSS_23_09_2006	3273	3.09E-06	TSS
TSS_24_09_2006	3262.3	3.09E-06	TSS
TSS_25_09_2006	3241.4	3.09E-06	TSS
TSS_26_09_2006	3193.7	3.09E-06	TSS
TSS_27_09_2006	4450	3.09E-06	TSS
TSS_28_09_2006	3966.7	3.09E-06	TSS
TSS_29_09_2006	3396.1	3.09E-06	TSS
TSS_30_09_2006	3244.8	3.09E-06	TSS
TSS_1_10_2006	3108.3	3.09E-06	TSS
TSS_2_10_2006	2994.6	3.09E-06	TSS
TSS_3_10_2006	2946.4	3.09E-06	TSS
TSS_4_10_2006	2901.4	3.09E-06	TSS
TSS_5_10_2006	2870.1	3.09E-06	TSS
TSS_6_10_2006	2877.2	3.09E-06	TSS
TSS_7_10_2006	2825.6	3.09E-06	TSS
TSS_8_10_2006	2771.5	3.09E-06	TSS
TSS_9_10_2006	2745	3.09E-06	TSS
TSS_10_10_2006	2716.6	3.09E-06	TSS
TSS_11_10_2006	2995	3.09E-06	TSS
TSS_12_10_2006	4121.8	3.09E-06	TSS
TSS_13_10_2006	4418.2	3.09E-06	TSS
TSS_14_10_2006	4129.4	3.09E-06	TSS
TSS_15_10_2006	3525.7	3.09E-06	TSS
TSS_16_10_2006	3123.6	3.09E-06	TSS
TSS_17_10_2006	3188.9	3.09E-06	TSS
TSS_18_10_2006	6407.7	3.09E-06	TSS
TSS_19_10_2006	8825.5	3.09E-06	TSS
TSS_20_10_2006	6644	3.09E-06	TSS
TSS_21_10_2006	5466.5	3.09E-06	TSS
TSS_22_10_2006	4825.8	3.09E-06	TSS
TSS_23_10_2006	4742.5	3.09E-06	TSS
TSS_24_10_2006	6474.4	3.09E-06	TSS
TSS_25_10_2006	5250.4	3.09E-06	TSS
TSS_26_10_2006	4595.3	3.09E-06	TSS
TSS_27_10_2006	4350.3	3.09E-06	TSS
TSS_28_10_2006	4165.1	3.09E-06	TSS
TSS_29_10_2006	4004.6	3.09E-06	TSS
TSS_30_10_2006	3838.8	3.09E-06	TSS
TSS_31_10_2006	3757.8	3.09E-06	TSS
TSS_1_11_2006	3712.3	3.09E-06	TSS
TSS_2_11_2006	3608.4	3.09E-06	TSS
TSS_3_11_2006	3512.7	3.09E-06	TSS
TSS_4_11_2006	3413.1	3.09E-06	TSS
TSS_5_11_2006	3360.7	3.09E-06	TSS
TSS_6_11_2006	3261.6	3.09E-06	TSS
TSS_7_11_2006	3164.9	3.09E-06	TSS
TSS_8_11_2006	3111.9	3.09E-06	TSS
TSS_9_11_2006	3066	3.09E-06	TSS
TSS_10_11_2006	3030.1	3.09E-06	TSS
TSS_11_11_2006	3177.5	3.09E-06	TSS
TSS_12_11_2006	3099	3.09E-06	TSS
TSS_13_11_2006	2888.9	3.09E-06	TSS
TSS_14_11_2006	2855.6	3.09E-06	TSS
TSS_15_11_2006	2832.3	3.09E-06	TSS
TSS_16_11_2006	2773.8	3.09E-06	TSS
TSS_17_11_2006	2710.8	3.09E-06	TSS
TSS_18_11_2006	2710.3	3.09E-06	TSS
TSS_19_11_2006	2740.1	3.09E-06	TSS
TSS_20_11_2006	2770.4	3.09E-06	TSS
TSS_21_11_2006	2807.8	3.09E-06	TSS
TSS_22_11_2006	2751.1	3.09E-06	TSS
TSS_23_11_2006	2675.6	3.09E-06	TSS
TSS_24_11_2006	2585.1	3.09E-06	TSS
TSS_25_11_2006	2535.5	3.09E-06	TSS
TSS_26_11_2006	2491.5	3.09E-06	TSS
TSS_27_11_2006	2462.5	3.09E-06	TSS
TSS_28_11_2006	2469.7	3.09E-06	TSS
TSS_29_11_2006	2481.4	3.09E-06	TSS
TSS_30_11_2006	2416.5	3.09E-06	TSS
TSS_1_12_2006	2353.8	3.09E-06	TSS
TSS_2_12_2006	2360.5	3.09E-06	TSS
TSS_3_12_2006	2474.5	3.09E-06	TSS
TSS_4_12_2006	2505.7	3.09E-06	TSS
TSS_5_12_2006	2390	3.09E-06	TSS
TSS_6_12_2006	2448.8	3.09E-06	TSS
TSS_7_12_2006	3085.2	3.09E-06	TSS
TSS_8_12_2006	3893.8	3.09E-06	TSS
TSS_9_12_2006	3173.5	3.09E-06	TSS
TSS_10_12_2006	4385.9	3.09E-06	TSS
TSS_11_12_2006	10272.1	3.09E-06	TSS
TSS_12_12_2006	8154.5	3.09E-06	TSS
TSS_13_12_2006	5536.3	3.09E-06	TSS
TSS_14_12_2006	4487.3	3.09E-06	TSS
TSS_15_12_2006	4081.8	3.09E-06	TSS
TSS_16_12_2006	3616.1	3.09E-06	TSS
TSS_17_12_2006	3408.3	3.09E-06	TSS
TSS_18_12_2006	3262.7	3.09E-06	TSS
TSS_19_12_2006	3339.9	3.09E-06	TSS
TSS_20_12_2006	3176.1	3.09E-06	TSS
TSS_21_12_2006	3106.5	3.09E-06	TSS
TSS_22_12_2006	3199.5	3.09E-06	TSS
TSS_23_12_2006	3218.5	3.09E-06	TSS
TSS_24_12_2006	3017.9	3.09E-06	TSS
TSS_25_12_2006	2909	3.09E-06	TSS
TSS_26_12_2006	2880.8	3.09E-06	TSS
TSS_27_12_2006	2817.7	3.09E-06	TSS
TSS_28_12_2006	5178.6	3.09E-06	TSS
TSS_29_12_2006	4990.2	3.09E-06	TSS
TSS_30_12_2006	5751.3	3.09E-06	TSS
TSS_31_12_2006	6969.7	3.09E-06	TSS
TSS_1_01_2007	5511.6	3.09E-06	TSS
TSS_2_01_2007	4467.7	3.09E-06	TSS
TSS_3_01_2007	4222.3	3.09E-06	TSS
TSS_4_01_2007	4141	3.09E-06	TSS
TSS_5_01_2007	3967.3	3.09E-06	TSS
TSS_6_01_2007	3974.4	3.09E-06	TSS
TSS_7_01_2007	3820	3.09E-06	TSS
TSS_8_01_2007	3569.5	3.09E-06	TSS
TSS_9_01_2007	3415.2	3.09E-06	TSS
TSS_10_01_2007	3322.8	3.09E-06	TSS
TSS_11_01_2007	3260.5	3.09E-06	TSS
TSS_12_01_2007	3248.5	3.09E-06	TSS
TSS_13_01_2007	3146.4	3.09E-06	TSS
TSS_14_01_2007	3100.4	3.09E-06	TSS
TSS_15_01_2007	3047.5	3.09E-06	TSS
TSS_16_01_2007	2980	3.09E-06	TSS
TSS_17_01_2007	2945.6	3.09E-06	TSS
TSS_18_01_2007	3184.3	3.09E-06	TSS
TSS_19_01_2007	3474.1	3.09E-06	TSS
TSS_20_01_2007	3837	3.09E-06	TSS
TSS_21_01_2007	4486.5	3.09E-06	TSS
TSS_22_01_2007	6445.6	3.09E-06	TSS
TSS_23_01_2007	7029.8	3.09E-06	TSS
TSS_24_01_2007	11962.3	3.09E-06	TSS
TSS_25_01_2007	46937.3	3.09E-06	TSS
TSS_26_01_2007	52603.6	3.09E-06	TSS
TSS_27_01_2007	108325.2	3.09E-06	TSS
TSS_28_01_2007	170583.7	3.09E-06	TSS
TSS_29_01_2007	298167.3	3.09E-06	TSS
TSS_30_01_2007	757391.6	3.09E-06	TSS
TSS_31_01_2007	1019134.8	3.09E-06	TSS
TSS_1_02_2007	1514374.1	3.09E-06	TSS
TSS_2_02_2007	1496875.6	3.09E-06	TSS
TSS_3_02_2007	1602525.6	3.09E-06	TSS
TSS_4_02_2007	2220387.2	3.09E-06	TSS
TSS_5_02_2007	14349552.9	3.09E-06	TSS
TSS_6_02_2007	2460539.4	3.09E-06	TSS
TSS_7_02_2007	432710.8	3.09E-06	TSS
TSS_8_02_2007	165339.6	3.09E-06	TSS
TSS_9_02_2007	90404.2	3.09E-06	TSS
TSS_10_02_2007	56907.1	3.09E-06	TSS
TSS_11_02_2007	63520.1	3.09E-06	TSS
TSS_12_02_2007	73345.4	3.09E-06	TSS
TSS_13_02_2007	83561.6	3.09E-06	TSS
TSS_14_02_2007	141969.9	3.09E-06	TSS
TSS_15_02_2007	215300.7	3.09E-06	TSS
TSS_16_02_2007	290178.8	3.09E-06	TSS
TSS_17_02_2007	344806.8	3.09E-06	TSS
TSS_18_02_2007	498353.4	3.09E-06	TSS
TSS_19_02_2007	1322933.6	3.09E-06	TSS
TSS_20_02_2007	754487.7	3.09E-06	TSS
TSS_21_02_2007	537647.5	3.09E-06	TSS
TSS_22_02_2007	555895.8	3.09E-06	TSS
TSS_23_02_2007	119153.6	3.09E-06	TSS
TSS_24_02_2007	543936	3.09E-06	TSS
TSS_25_02_2007	494788.7	3.09E-06	TSS
TSS_26_02_2007	136949.2	3.09E-06	TSS
TSS_27_02_2007	70839.5	3.09E-06	TSS
TSS_28_02_2007	45502.8	3.09E-06	TSS
TSS_1_03_2007	39735.9	3.09E-06	TSS
TSS_2_03_2007	63608.2	3.09E-06	TSS
TSS_3_03_2007	92007.6	3.09E-06	TSS
TSS_4_03_2007	115491.2	3.09E-06	TSS
TSS_5_03_2007	135012.7	3.09E-06	TSS
TSS_6_03_2007	154890.4	3.09E-06	TSS
TSS_7_03_2007	174237.1	3.09E-06	TSS
TSS_8_03_2007	202271.7	3.09E-06	TSS
TSS_9_03_2007	219021.9	3.09E-06	TSS
TSS_10_03_2007	309023.4	3.09E-06	TSS
TSS_11_03_2007	367207.8	3.09E-06	TSS
TSS_12_03_2007	343217.7	3.09E-06	TSS
TSS_13_03_2007	314337.6	3.09E-06	TSS
TSS_14_03_2007	328486.2	3.09E-06	TSS
TSS_15_03_2007	446376.2	3.09E-06	TSS
TSS_16_03_2007	1816082.6	3.09E-06	TSS
TSS_17_03_2007	183463.3	3.09E-06	TSS
TSS_18_03_2007	43045.5	3.09E-06	TSS
TSS_19_03_2007	25365	3.09E-06	TSS
TSS_20_03_2007	23994.2	3.09E-06	TSS
TSS_21_03_2007	265576.6	3.09E-06	TSS
TSS_22_03_2007	289034.4	3.09E-06	TSS
TSS_23_03_2007	108092	3.09E-06	TSS
TSS_24_03_2007	45435.1	3.09E-06	TSS
TSS_25_03_2007	30543.3	3.09E-06	TSS
TSS_26_03_2007	22741	3.09E-06	TSS
TSS_27_03_2007	21355	3.09E-06	TSS
TSS_28_03_2007	23629.9	3.09E-06	TSS
TSS_29_03_2007	21465.1	3.09E-06	TSS
TSS_30_03_2007	21408	3.09E-06	TSS
TSS_31_03_2007	21655.9	3.09E-06	TSS
TSS_1_04_2007	22238.3	3.09E-06	TSS
TSS_2_04_2007	34388.6	3.09E-06	TSS
TSS_3_04_2007	32109.3	3.09E-06	TSS
TSS_4_04_2007	27502.4	3.09E-06	TSS
TSS_5_04_2007	27379.1	3.09E-06	TSS
TSS_6_04_2007	28074.5	3.09E-06	TSS
TSS_7_04_2007	29500.2	3.09E-06	TSS
TSS_8_04_2007	29024.3	3.09E-06	TSS
TSS_9_04_2007	30454.4	3.09E-06	TSS
TSS_10_04_2007	32140.5	3.09E-06	TSS
TSS_11_04_2007	32648.3	3.09E-06	TSS
TSS_12_04_2007	32792.2	3.09E-06	TSS
TSS_13_04_2007	34403.5	3.09E-06	TSS
TSS_14_04_2007	39019.7	3.09E-06	TSS
TSS_15_04_2007	41476.1	3.09E-06	TSS
TSS_16_04_2007	40634.1	3.09E-06	TSS
TSS_17_04_2007	40269	3.09E-06	TSS
TSS_18_04_2007	39616.5	3.09E-06	TSS
TSS_19_04_2007	38948.2	3.09E-06	TSS
TSS_20_04_2007	38785.7	3.09E-06	TSS
TSS_21_04_2007	38689.5	3.09E-06	TSS
TSS_22_04_2007	38633.6	3.09E-06	TSS
TSS_23_04_2007	38605.4	3.09E-06	TSS
TSS_24_04_2007	38606.5	3.09E-06	TSS
TSS_25_04_2007	38732.6	3.09E-06	TSS
TSS_26_04_2007	38808.8	3.09E-06	TSS
TSS_27_04_2007	38965.5	3.09E-06	TSS
TSS_28_04_2007	39151.2	3.09E-06	TSS
TSS_29_04_2007	39389.4	3.09E-06	TSS
TSS_30_04_2007	39514	3.09E-06	TSS
TSS_1_05_2007	39618.4	3.09E-06	TSS
TSS_2_05_2007	39853.6	3.09E-06	TSS
TSS_3_05_2007	39912.4	3.09E-06	TSS
TSS_4_05_2007	39346.5	3.09E-06	TSS
TSS_5_05_2007	38926	3.09E-06	TSS
TSS_6_05_2007	38749.6	3.09E-06	TSS
TSS_7_05_2007	38574.2	3.09E-06	TSS
TSS_8_05_2007	40005.4	3.09E-06	TSS
TSS_9_05_2007	46797.9	3.09E-06	TSS
TSS_10_05_2007	44860.5	3.09E-06	TSS
TSS_11_05_2007	55897	3.09E-06	TSS
TSS_12_05_2007	55169.3	3.09E-06	TSS
TSS_13_05_2007	49004.7	3.09E-06	TSS
TSS_14_05_2007	47739.2	3.09E-06	TSS
TSS_15_05_2007	45389.9	3.09E-06	TSS
TSS_16_05_2007	43484.4	3.09E-06	TSS
TSS_17_05_2007	42826.2	3.09E-06	TSS
TSS_18_05_2007	43044.5	3.09E-06	TSS
TSS_19_05_2007	42072.1	3.09E-06	TSS
TSS_20_05_2007	41229.6	3.09E-06	TSS
TSS_21_05_2007	40696.9	3.09E-06	TSS
TSS_22_05_2007	40465.6	3.09E-06	TSS
TSS_23_05_2007	40492	3.09E-06	TSS
TSS_24_05_2007	49890.1	3.09E-06	TSS
TSS_25_05_2007	66047.4	3.09E-06	TSS
TSS_26_05_2007	56263.3	3.09E-06	TSS
TSS_27_05_2007	71429.9	3.09E-06	TSS
TSS_28_05_2007	77922.2	3.09E-06	TSS
TSS_29_05_2007	103645	3.09E-06	TSS
TSS_30_05_2007	81472.6	3.09E-06	TSS
TSS_31_05_2007	77218.4	3.09E-06	TSS
TSS_1_06_2007	78620.1	3.09E-06	TSS
TSS_2_06_2007	82515.9	3.09E-06	TSS
TSS_3_06_2007	87551.5	3.09E-06	TSS
TSS_4_06_2007	90898.4	3.09E-06	TSS
TSS_5_06_2007	96798.1	3.09E-06	TSS
TSS_6_06_2007	101377.5	3.09E-06	TSS
TSS_7_06_2007	111586.8	3.09E-06	TSS
TSS_8_06_2007	114251.8	3.09E-06	TSS
TSS_9_06_2007	113723.3	3.09E-06	TSS
TSS_10_06_2007	112875.4	3.09E-06	TSS
TSS_11_06_2007	113040.7	3.09E-06	TSS
TSS_12_06_2007	114150.4	3.09E-06	TSS
TSS_13_06_2007	115694.4	3.09E-06	TSS
TSS_14_06_2007	118739.8	3.09E-06	TSS
TSS_15_06_2007	126271.9	3.09E-06	TSS
TSS_16_06_2007	140593.8	3.09E-06	TSS
TSS_17_06_2007	132833.1	3.09E-06	TSS
TSS_18_06_2007	168524	3.09E-06	TSS
TSS_19_06_2007	154547.1	3.09E-06	TSS
TSS_20_06_2007	129116	3.09E-06	TSS
TSS_21_06_2007	111536.2	3.09E-06	TSS
TSS_22_06_2007	96638.2	3.09E-06	TSS
TSS_23_06_2007	83591.2	3.09E-06	TSS
TSS_24_06_2007	70805.2	3.09E-06	TSS
TSS_25_06_2007	61474	3.09E-06	TSS
TSS_26_06_2007	57847.2	3.09E-06	TSS
TSS_27_06_2007	43496.6	3.09E-06	TSS
TSS_28_06_2007	30892.7	3.09E-06	TSS
TSS_29_06_2007	20586.6	3.09E-06	TSS
TSS_30_06_2007	11184.7	3.09E-06	TSS
TSS_1_07_2007	1822.2	3.09E-06	TSS
TSS_2_07_2007	1922.2	3.09E-06	TSS
TSS_3_07_2007	2020.4	3.09E-06	TSS
TSS_4_07_2007	2109	3.09E-06	TSS
TSS_5_07_2007	2203.2	3.09E-06	TSS
TSS_6_07_2007	2279.6	3.09E-06	TSS
TSS_7_07_2007	2348.7	3.09E-06	TSS
TSS_8_07_2007	2426.9	3.09E-06	TSS
TSS_9_07_2007	2499.4	3.09E-06	TSS
TSS_10_07_2007	2566.7	3.09E-06	TSS
TSS_11_07_2007	2636.3	3.09E-06	TSS
TSS_12_07_2007	2728.9	3.09E-06	TSS
TSS_13_07_2007	2814.1	3.09E-06	TSS
TSS_14_07_2007	2868.6	3.09E-06	TSS
TSS_15_07_2007	2937.8	3.09E-06	TSS
TSS_16_07_2007	3018.7	3.09E-06	TSS
TSS_17_07_2007	3090.4	3.09E-06	TSS
TSS_18_07_2007	3153	3.09E-06	TSS
TSS_19_07_2007	3202.8	3.09E-06	TSS
TSS_20_07_2007	3249.6	3.09E-06	TSS
TSS_21_07_2007	3293.5	3.09E-06	TSS
TSS_22_07_2007	3371.1	3.09E-06	TSS
TSS_23_07_2007	3758.4	3.09E-06	TSS
TSS_24_07_2007	4594.4	3.09E-06	TSS
TSS_25_07_2007	4729.4	3.09E-06	TSS
TSS_26_07_2007	5009.3	3.09E-06	TSS
TSS_27_07_2007	4891	3.09E-06	TSS
TSS_28_07_2007	4602	3.09E-06	TSS
TSS_29_07_2007	4833.6	3.09E-06	TSS
TSS_30_07_2007	4454.9	3.09E-06	TSS
TSS_31_07_2007	4324.7	3.09E-06	TSS
TSS_1_08_2007	4298.1	3.09E-06	TSS
TSS_2_08_2007	4339.9	3.09E-06	TSS
TSS_3_08_2007	4369.2	3.09E-06	TSS
TSS_4_08_2007	4382	3.09E-06	TSS
TSS_5_08_2007	4380.7	3.09E-06	TSS
TSS_6_08_2007	4355.6	3.09E-06	TSS
TSS_7_08_2007	4367.5	3.09E-06	TSS
TSS_8_08_2007	4450.8	3.09E-06	TSS
TSS_9_08_2007	4546.4	3.09E-06	TSS
TSS_10_08_2007	4776.9	3.09E-06	TSS
TSS_11_08_2007	4854.7	3.09E-06	TSS
TSS_12_08_2007	4762.1	3.09E-06	TSS
TSS_13_08_2007	4721.4	3.09E-06	TSS
TSS_14_08_2007	4714.6	3.09E-06	TSS
TSS_15_08_2007	4842.2	3.09E-06	TSS
TSS_16_08_2007	5573.5	3.09E-06	TSS
TSS_17_08_2007	5521.6	3.09E-06	TSS
TSS_18_08_2007	5593.2	3.09E-06	TSS
TSS_19_08_2007	6054.2	3.09E-06	TSS
TSS_20_08_2007	6647.2	3.09E-06	TSS
TSS_21_08_2007	5884.4	3.09E-06	TSS
TSS_22_08_2007	5553.4	3.09E-06	TSS
TSS_23_08_2007	5426.3	3.09E-06	TSS
TSS_24_08_2007	5387.9	3.09E-06	TSS
TSS_25_08_2007	5365.2	3.09E-06	TSS
TSS_26_08_2007	5352.8	3.09E-06	TSS
TSS_27_08_2007	5406.8	3.09E-06	TSS
TSS_28_08_2007	5857.4	3.09E-06	TSS
TSS_29_08_2007	6214.1	3.09E-06	TSS
TSS_30_08_2007	7312.7	3.09E-06	TSS
TSS_31_08_2007	6931.4	3.09E-06	TSS
TSS_1_09_2007	6319.4	3.09E-06	TSS
TSS_2_09_2007	6080.6	3.09E-06	TSS
TSS_3_09_2007	6027.3	3.09E-06	TSS
TSS_4_09_2007	6065.1	3.09E-06	TSS
TSS_5_09_2007	6409.5	3.09E-06	TSS
TSS_6_09_2007	6414.4	3.09E-06	TSS
TSS_7_09_2007	6174.6	3.09E-06	TSS
TSS_8_09_2007	6044.5	3.09E-06	TSS
TSS_9_09_2007	5973.9	3.09E-06	TSS
TSS_10_09_2007	5954	3.09E-06	TSS
TSS_11_09_2007	5947.5	3.09E-06	TSS
TSS_12_09_2007	5894.6	3.09E-06	TSS
TSS_13_09_2007	5862.9	3.09E-06	TSS
TSS_14_09_2007	5836.4	3.09E-06	TSS
TSS_15_09_2007	5826	3.09E-06	TSS
TSS_16_09_2007	5833.9	3.09E-06	TSS
TSS_17_09_2007	5817.3	3.09E-06	TSS
TSS_18_09_2007	5785.1	3.09E-06	TSS
TSS_19_09_2007	5746.4	3.09E-06	TSS
TSS_20_09_2007	5739.4	3.09E-06	TSS
TSS_21_09_2007	5713.7	3.09E-06	TSS
TSS_22_09_2007	5715.1	3.09E-06	TSS
TSS_23_09_2007	5766.3	3.09E-06	TSS
TSS_24_09_2007	5909.8	3.09E-06	TSS
TSS_25_09_2007	5970	3.09E-06	TSS
TSS_26_09_2007	5747.4	3.09E-06	TSS
TSS_27_09_2007	5703.5	3.09E-06	TSS
TSS_28_09_2007	5699.6	3.09E-06	TSS
TSS_29_09_2007	5729.4	3.09E-06	TSS
TSS_30_09_2007	5723.4	3.09E-06	TSS
TSS_1_10_2007	5715.4	3.09E-06	TSS
TSS_2_10_2007	6517.6	3.09E-06	TSS
TSS_3_10_2007	7109.3	3.09E-06	TSS
TSS_4_10_2007	6332.9	3.09E-06	TSS
TSS_5_10_2007	6046.7	3.09E-06	TSS
TSS_6_10_2007	5914.4	3.09E-06	TSS
TSS_7_10_2007	5840.6	3.09E-06	TSS
TSS_8_10_2007	5767	3.09E-06	TSS
TSS_9_10_2007	5723.6	3.09E-06	TSS
TSS_10_10_2007	5694.5	3.09E-06	TSS
TSS_11_10_2007	5676	3.09E-06	TSS
TSS_12_10_2007	6075.3	3.09E-06	TSS
TSS_13_10_2007	11761.4	3.09E-06	TSS
TSS_14_10_2007	7090.9	3.09E-06	TSS
TSS_15_10_2007	6407.2	3.09E-06	TSS
TSS_16_10_2007	6640.3	3.09E-06	TSS
TSS_17_10_2007	6301.9	3.09E-06	TSS
TSS_18_10_2007	6206.5	3.09E-06	TSS
TSS_19_10_2007	7350.3	3.09E-06	TSS
TSS_20_10_2007	10283.7	3.09E-06	TSS
TSS_21_10_2007	11105	3.09E-06	TSS
TSS_22_10_2007	10204.3	3.09E-06	TSS
TSS_23_10_2007	8053.2	3.09E-06	TSS
TSS_24_10_2007	7323.9	3.09E-06	TSS
TSS_25_10_2007	6982.1	3.09E-06	TSS
TSS_26_10_2007	6800.5	3.09E-06	TSS
TSS_27_10_2007	6654.7	3.09E-06	TSS
TSS_28_10_2007	6600.6	3.09E-06	TSS
TSS_29_10_2007	6494.2	3.09E-06	TSS
TSS_30_10_2007	6458.7	3.09E-06	TSS
TSS_31_10_2007	6401.6	3.09E-06	TSS
TSS_1_11_2007	6334	3.09E-06	TSS
TSS_2_11_2007	6295.6	3.09E-06	TSS
TSS_3_11_2007	6268.7	3.09E-06	TSS
TSS_4_11_2007	6244.4	3.09E-06	TSS
TSS_5_11_2007	6109.3	3.09E-06	TSS
TSS_6_11_2007	6005.1	3.09E-06	TSS
TSS_7_11_2007	5942.8	3.09E-06	TSS
TSS_8_11_2007	5970	3.09E-06	TSS
TSS_9_11_2007	6077.6	3.09E-06	TSS
TSS_10_11_2007	6423.3	3.09E-06	TSS
TSS_11_11_2007	7250.3	3.09E-06	TSS
TSS_12_11_2007	12337.1	3.09E-06	TSS
TSS_13_11_2007	12207.5	3.09E-06	TSS
TSS_14_11_2007	21807.3	3.09E-06	TSS
TSS_15_11_2007	13126.1	3.09E-06	TSS
TSS_16_11_2007	12824.7	3.09E-06	TSS
TSS_17_11_2007	23835.4	3.09E-06	TSS
TSS_18_11_2007	17363.8	3.09E-06	TSS
TSS_19_11_2007	13491.3	3.09E-06	TSS
TSS_20_11_2007	25056.9	3.09E-06	TSS
TSS_21_11_2007	33589.2	3.09E-06	TSS
TSS_22_11_2007	11629.7	3.09E-06	TSS
TSS_23_11_2007	4600.6	3.09E-06	TSS
TSS_24_11_2007	3058.8	3.09E-06	TSS
TSS_25_11_2007	3100	3.09E-06	TSS
TSS_26_11_2007	9793.5	3.09E-06	TSS
TSS_27_11_2007	18310.5	3.09E-06	TSS
TSS_28_11_2007	26591.3	3.09E-06	TSS
TSS_29_11_2007	34355	3.09E-06	TSS
TSS_30_11_2007	45603.9	3.09E-06	TSS
TSS_1_12_2007	54326.2	3.09E-06	TSS
TSS_2_12_2007	57084.7	3.09E-06	TSS
TSS_3_12_2007	177087.8	3.09E-06	TSS
TSS_4_12_2007	243009.5	3.09E-06	TSS
TSS_5_12_2007	39879.4	3.09E-06	TSS
TSS_6_12_2007	15090.8	3.09E-06	TSS
TSS_7_12_2007	13388.8	3.09E-06	TSS
TSS_8_12_2007	16034.9	3.09E-06	TSS
TSS_9_12_2007	18685.8	3.09E-06	TSS
TSS_10_12_2007	21560.5	3.09E-06	TSS
TSS_11_12_2007	24479	3.09E-06	TSS
TSS_12_12_2007	27126.9	3.09E-06	TSS
TSS_13_12_2007	29689.9	3.09E-06	TSS
TSS_14_12_2007	32839.6	3.09E-06	TSS
TSS_15_12_2007	39076.6	3.09E-06	TSS
TSS_16_12_2007	43561.5	3.09E-06	TSS
TSS_17_12_2007	45841.3	3.09E-06	TSS
TSS_18_12_2007	45215.1	3.09E-06	TSS
TSS_19_12_2007	45555.7	3.09E-06	TSS
TSS_20_12_2007	49545.2	3.09E-06	TSS
TSS_21_12_2007	70613.3	3.09E-06	TSS
TSS_22_12_2007	64236.7	3.09E-06	TSS
TSS_23_12_2007	60969.1	3.09E-06	TSS
TSS_24_12_2007	60205.5	3.09E-06	TSS
TSS_25_12_2007	60803.9	3.09E-06	TSS
TSS_26_12_2007	197340.4	3.09E-06	TSS
TSS_27_12_2007	665498.3	3.09E-06	TSS
TSS_28_12_2007	92019.5	3.09E-06	TSS
TSS_29_12_2007	45462.8	3.09E-06	TSS
TSS_30_12_2007	27332.4	3.09E-06	TSS
TSS_31_12_2007	19680.1	3.09E-06	TSS
TSS_1_01_2008	9249.2	3.09E-06	TSS
TSS_2_01_2008	5635.1	3.09E-06	TSS
TSS_3_01_2008	16925.5	3.09E-06	TSS
TSS_4_01_2008	28485	3.09E-06	TSS
TSS_5_01_2008	44204.1	3.09E-06	TSS
TSS_6_01_2008	58237.9	3.09E-06	TSS
TSS_7_01_2008	70063.8	3.09E-06	TSS
TSS_8_01_2008	585287	3.09E-06	TSS
TSS_9_01_2008	971277.5	3.09E-06	TSS
TSS_10_01_2008	268968	3.09E-06	TSS
TSS_11_01_2008	42933.6	3.09E-06	TSS
TSS_12_01_2008	46502.4	3.09E-06	TSS
TSS_13_01_2008	48098.9	3.09E-06	TSS
TSS_14_01_2008	55294.8	3.09E-06	TSS
TSS_15_01_2008	71272.9	3.09E-06	TSS
TSS_16_01_2008	48229.3	3.09E-06	TSS
TSS_17_01_2008	39773.5	3.09E-06	TSS
TSS_18_01_2008	33431.2	3.09E-06	TSS
TSS_19_01_2008	28724.7	3.09E-06	TSS
TSS_20_01_2008	23621.1	3.09E-06	TSS
TSS_21_01_2008	19381.6	3.09E-06	TSS
TSS_22_01_2008	15436.9	3.09E-06	TSS
TSS_23_01_2008	12642.1	3.09E-06	TSS
TSS_24_01_2008	10025.5	3.09E-06	TSS
TSS_25_01_2008	9000.5	3.09E-06	TSS
TSS_26_01_2008	19912.9	3.09E-06	TSS
TSS_27_01_2008	28127.1	3.09E-06	TSS
TSS_28_01_2008	36839.5	3.09E-06	TSS
TSS_29_01_2008	48461.1	3.09E-06	TSS
TSS_30_01_2008	74837.4	3.09E-06	TSS
TSS_31_01_2008	164108.8	3.09E-06	TSS
TSS_1_02_2008	115238.4	3.09E-06	TSS
TSS_2_02_2008	75181.8	3.09E-06	TSS
TSS_3_02_2008	50358.7	3.09E-06	TSS
TSS_4_02_2008	35057	3.09E-06	TSS
TSS_5_02_2008	22378.1	3.09E-06	TSS
TSS_6_02_2008	12137.3	3.09E-06	TSS
TSS_7_02_2008	14129.7	3.09E-06	TSS
TSS_8_02_2008	16179.5	3.09E-06	TSS
TSS_9_02_2008	23664	3.09E-06	TSS
TSS_10_02_2008	32294.7	3.09E-06	TSS
TSS_11_02_2008	38830.1	3.09E-06	TSS
TSS_12_02_2008	35028.3	3.09E-06	TSS
TSS_13_02_2008	36204.1	3.09E-06	TSS
TSS_14_02_2008	38306.7	3.09E-06	TSS
TSS_15_02_2008	41453.5	3.09E-06	TSS
TSS_16_02_2008	93169.4	3.09E-06	TSS
TSS_17_02_2008	187202.5	3.09E-06	TSS
TSS_18_02_2008	83456.6	3.09E-06	TSS
TSS_19_02_2008	67005.7	3.09E-06	TSS
TSS_20_02_2008	83699.4	3.09E-06	TSS
TSS_21_02_2008	72024.3	3.09E-06	TSS
TSS_22_02_2008	57621.8	3.09E-06	TSS
TSS_23_02_2008	47581.7	3.09E-06	TSS
TSS_24_02_2008	39128.7	3.09E-06	TSS
TSS_25_02_2008	31717.3	3.09E-06	TSS
TSS_26_02_2008	28203.2	3.09E-06	TSS
TSS_27_02_2008	19309.5	3.09E-06	TSS
TSS_28_02_2008	13098.5	3.09E-06	TSS
TSS_29_02_2008	86221.2	3.09E-06	TSS
TSS_1_03_2008	494047.4	3.09E-06	TSS
TSS_2_03_2008	6215239.7	3.09E-06	TSS
TSS_3_03_2008	781675.9	3.09E-06	TSS
TSS_4_03_2008	2569360.1	3.09E-06	TSS
TSS_5_03_2008	8809205.3	3.09E-06	TSS
TSS_6_03_2008	600602.8	3.09E-06	TSS
TSS_7_03_2008	234993.7	3.09E-06	TSS
TSS_8_03_2008	124795.6	3.09E-06	TSS
TSS_9_03_2008	120075	3.09E-06	TSS
TSS_10_03_2008	84208.5	3.09E-06	TSS
TSS_11_03_2008	62468.4	3.09E-06	TSS
TSS_12_03_2008	365584.1	3.09E-06	TSS
TSS_13_03_2008	2871652.5	3.09E-06	TSS
TSS_14_03_2008	7494189.7	3.09E-06	TSS
TSS_15_03_2008	1221608.6	3.09E-06	TSS
TSS_16_03_2008	282047.6	3.09E-06	TSS
TSS_17_03_2008	175530	3.09E-06	TSS
TSS_18_03_2008	105086.1	3.09E-06	TSS
TSS_19_03_2008	69734.7	3.09E-06	TSS
TSS_20_03_2008	41504.6	3.09E-06	TSS
TSS_21_03_2008	32187	3.09E-06	TSS
TSS_22_03_2008	27217.5	3.09E-06	TSS
TSS_23_03_2008	22875.4	3.09E-06	TSS
TSS_24_03_2008	19942.1	3.09E-06	TSS
TSS_25_03_2008	16442.9	3.09E-06	TSS
TSS_26_03_2008	13464.3	3.09E-06	TSS
TSS_27_03_2008	11227.4	3.09E-06	TSS
TSS_28_03_2008	39777.7	3.09E-06	TSS
TSS_29_03_2008	281342.8	3.09E-06	TSS
TSS_30_03_2008	98229	3.09E-06	TSS
TSS_31_03_2008	19289.6	3.09E-06	TSS
TSS_1_04_2008	17927.7	3.09E-06	TSS
TSS_2_04_2008	18351	3.09E-06	TSS
TSS_3_04_2008	17242.5	3.09E-06	TSS
TSS_4_04_2008	16358.9	3.09E-06	TSS
TSS_5_04_2008	15663.7	3.09E-06	TSS
TSS_6_04_2008	15110.1	3.09E-06	TSS
TSS_7_04_2008	14755.5	3.09E-06	TSS
TSS_8_04_2008	14443.1	3.09E-06	TSS
TSS_9_04_2008	13923.7	3.09E-06	TSS
TSS_10_04_2008	13445.9	3.09E-06	TSS
TSS_11_04_2008	13056.9	3.09E-06	TSS
TSS_12_04_2008	12702.9	3.09E-06	TSS
TSS_13_04_2008	12366.3	3.09E-06	TSS
TSS_14_04_2008	12069.5	3.09E-06	TSS
TSS_15_04_2008	11771.5	3.09E-06	TSS
TSS_16_04_2008	11474.9	3.09E-06	TSS
TSS_17_04_2008	12002.9	3.09E-06	TSS
TSS_18_04_2008	12019	3.09E-06	TSS
TSS_19_04_2008	10970.7	3.09E-06	TSS
TSS_20_04_2008	10522.3	3.09E-06	TSS
TSS_21_04_2008	10632.2	3.09E-06	TSS
TSS_22_04_2008	9839.9	3.09E-06	TSS
TSS_23_04_2008	9288.6	3.09E-06	TSS
TSS_24_04_2008	8911.8	3.09E-06	TSS
TSS_25_04_2008	8615.4	3.09E-06	TSS
TSS_26_04_2008	8353.3	3.09E-06	TSS
TSS_27_04_2008	8057.9	3.09E-06	TSS
TSS_28_04_2008	7757.5	3.09E-06	TSS
TSS_29_04_2008	7432.2	3.09E-06	TSS
TSS_30_04_2008	7173.8	3.09E-06	TSS
TSS_1_05_2008	7021.8	3.09E-06	TSS
TSS_2_05_2008	6945.3	3.09E-06	TSS
TSS_3_05_2008	6943.1	3.09E-06	TSS
TSS_4_05_2008	6533	3.09E-06	TSS
TSS_5_05_2008	6335.3	3.09E-06	TSS
TSS_6_05_2008	6766.9	3.09E-06	TSS
TSS_7_05_2008	6443.8	3.09E-06	TSS
TSS_8_05_2008	5880	3.09E-06	TSS
TSS_9_05_2008	5651.3	3.09E-06	TSS
TSS_10_05_2008	5510.9	3.09E-06	TSS
TSS_11_05_2008	5728.6	3.09E-06	TSS
TSS_12_05_2008	5651.4	3.09E-06	TSS
TSS_13_05_2008	5285.7	3.09E-06	TSS
TSS_14_05_2008	5821.3	3.09E-06	TSS
TSS_15_05_2008	5663.2	3.09E-06	TSS
TSS_16_05_2008	5040.9	3.09E-06	TSS
TSS_17_05_2008	4782.3	3.09E-06	TSS
TSS_18_05_2008	4590.9	3.09E-06	TSS
TSS_19_05_2008	4394.4	3.09E-06	TSS
TSS_20_05_2008	4250.3	3.09E-06	TSS
TSS_21_05_2008	4148.3	3.09E-06	TSS
TSS_22_05_2008	4077.1	3.09E-06	TSS
TSS_23_05_2008	4528.5	3.09E-06	TSS
TSS_24_05_2008	5444.7	3.09E-06	TSS
TSS_25_05_2008	5810.9	3.09E-06	TSS
TSS_26_05_2008	6451.3	3.09E-06	TSS
TSS_27_05_2008	6349.3	3.09E-06	TSS
TSS_28_05_2008	5103.4	3.09E-06	TSS
TSS_29_05_2008	4521.7	3.09E-06	TSS
TSS_30_05_2008	4151.3	3.09E-06	TSS
TSS_31_05_2008	3908.3	3.09E-06	TSS
TSS_1_06_2008	3767	3.09E-06	TSS
TSS_2_06_2008	3632.8	3.09E-06	TSS
TSS_3_06_2008	3499.7	3.09E-06	TSS
TSS_4_06_2008	3397.3	3.09E-06	TSS
TSS_5_06_2008	3367	3.09E-06	TSS
TSS_6_06_2008	3255.3	3.09E-06	TSS
TSS_7_06_2008	3131.3	3.09E-06	TSS
TSS_8_06_2008	3018.2	3.09E-06	TSS
TSS_9_06_2008	3019.4	3.09E-06	TSS
TSS_10_06_2008	3170.1	3.09E-06	TSS
TSS_11_06_2008	3313.8	3.09E-06	TSS
TSS_12_06_2008	3556.4	3.09E-06	TSS
TSS_13_06_2008	3274.2	3.09E-06	TSS
TSS_14_06_2008	2899	3.09E-06	TSS
TSS_15_06_2008	2700.8	3.09E-06	TSS
TSS_16_06_2008	2591.6	3.09E-06	TSS
TSS_17_06_2008	2548.9	3.09E-06	TSS
TSS_18_06_2008	2872.1	3.09E-06	TSS
TSS_19_06_2008	2707.4	3.09E-06	TSS
TSS_20_06_2008	2432.9	3.09E-06	TSS
TSS_21_06_2008	2319.9	3.09E-06	TSS
TSS_22_06_2008	2232.7	3.09E-06	TSS
TSS_23_06_2008	2145.7	3.09E-06	TSS
TSS_24_06_2008	2091.6	3.09E-06	TSS
TSS_25_06_2008	2057.9	3.09E-06	TSS
TSS_26_06_2008	2023	3.09E-06	TSS
TSS_27_06_2008	1958.6	3.09E-06	TSS
TSS_28_06_2008	1913.2	3.09E-06	TSS
TSS_29_06_2008	1979.8	3.09E-06	TSS
TSS_30_06_2008	2101.7	3.09E-06	TSS
TSS_1_07_2008	2395.3	3.09E-06	TSS
TSS_2_07_2008	2316	3.09E-06	TSS
TSS_3_07_2008	2298.6	3.09E-06	TSS
TSS_4_07_2008	2291.9	3.09E-06	TSS
TSS_5_07_2008	2306.8	3.09E-06	TSS
TSS_6_07_2008	2319.5	3.09E-06	TSS
TSS_7_07_2008	2441.1	3.09E-06	TSS
TSS_8_07_2008	2570.3	3.09E-06	TSS
TSS_9_07_2008	2466.7	3.09E-06	TSS
TSS_10_07_2008	2414.7	3.09E-06	TSS
TSS_11_07_2008	2410.8	3.09E-06	TSS
TSS_12_07_2008	2439.6	3.09E-06	TSS
TSS_13_07_2008	2474.6	3.09E-06	TSS
TSS_14_07_2008	2501.1	3.09E-06	TSS
TSS_15_07_2008	2839.9	3.09E-06	TSS
TSS_16_07_2008	5599.8	3.09E-06	TSS
TSS_17_07_2008	4565	3.09E-06	TSS
TSS_18_07_2008	3647.1	3.09E-06	TSS
TSS_19_07_2008	3410.5	3.09E-06	TSS
TSS_20_07_2008	3279.9	3.09E-06	TSS
TSS_21_07_2008	5723.9	3.09E-06	TSS
TSS_22_07_2008	6477.1	3.09E-06	TSS
TSS_23_07_2008	7332	3.09E-06	TSS
TSS_24_07_2008	8897.8	3.09E-06	TSS
TSS_25_07_2008	7003.5	3.09E-06	TSS
TSS_26_07_2008	5621.2	3.09E-06	TSS
TSS_27_07_2008	5021.7	3.09E-06	TSS
TSS_28_07_2008	4682.9	3.09E-06	TSS
TSS_29_07_2008	4421.8	3.09E-06	TSS
TSS_30_07_2008	4225.2	3.09E-06	TSS
TSS_31_07_2008	4133.7	3.09E-06	TSS
TSS_1_08_2008	4070	3.09E-06	TSS
TSS_2_08_2008	4023.4	3.09E-06	TSS
TSS_3_08_2008	3975.7	3.09E-06	TSS
TSS_4_08_2008	3956.9	3.09E-06	TSS
TSS_5_08_2008	3930.3	3.09E-06	TSS
TSS_6_08_2008	3873.5	3.09E-06	TSS
TSS_7_08_2008	3831.2	3.09E-06	TSS
TSS_8_08_2008	3822.6	3.09E-06	TSS
TSS_9_08_2008	3796.3	3.09E-06	TSS
TSS_10_08_2008	3774.5	3.09E-06	TSS
TSS_11_08_2008	3773.3	3.09E-06	TSS
TSS_12_08_2008	3761	3.09E-06	TSS
TSS_13_08_2008	3751.9	3.09E-06	TSS
TSS_14_08_2008	3747.1	3.09E-06	TSS
TSS_15_08_2008	3755.7	3.09E-06	TSS
TSS_16_08_2008	3761.7	3.09E-06	TSS
TSS_17_08_2008	3722.2	3.09E-06	TSS
TSS_18_08_2008	3681.7	3.09E-06	TSS
TSS_19_08_2008	3685.9	3.09E-06	TSS
TSS_20_08_2008	3723.5	3.09E-06	TSS
TSS_21_08_2008	3772.8	3.09E-06	TSS