pcf
* control data
restart estimation
      14    2192      1       0       1    
1 1 single point
10.0 -3.0 0.3 0.03 10 9999
10.0 10.0 0.001
0.1
   50  0.005 4 4 0.005 4
0 0 0
* singular value decomposition
1
14 5e-07
0
* parameter groups
all_params relative 0.015 0.000 switch 2.0 parabolic
* parameter data
DRF	log     factor	50	0.00001	100	all_params	1	0
DRP	log     factor	40	0.00001	100	all_params	1	0
DWC	log     factor	50	0.00001	100	all_params	1	0
LCF	log     factor	50	0.00001	100	all_params	1	0
gfDWC	log     factor	50	0.00001	100	all_params	1	0
gfEMC	log     factor	50	0.00001	100	all_params	1	0
goDWC	log     factor	50	0.00001	100	all_params	1	0
goEMC	log     factor	50	0.00001	100	all_params	1	0
cDWC	log     factor	50	0.00001	100	all_params	1	0
cEMC	log     factor	50	0.00001	100	all_params	1	0
fDWC	log     factor	50	0.00001	100	all_params	1	0
fEMC	log     factor	50	0.00001	100	all_params	1	0
oDWC	log     factor	50	0.00001	100	all_params	1	0
oEMC	log     factor	50	0.00001	100	all_params	1	0
* observation groups
DIN 
* observation data
DIN_01_07_2010 0.004 4.56E-04 DIN
DIN_02_07_2010 1.128 4.56E-04 DIN
DIN_03_07_2010 0.004 4.56E-04 DIN
DIN_04_07_2010 1.845 4.56E-04 DIN
DIN_05_07_2010 0.004 4.56E-04 DIN
DIN_06_07_2010 0.004 4.56E-04 DIN
DIN_07_07_2010 0.004 4.56E-04 DIN
DIN_08_07_2010 19.353 4.56E-04 DIN
DIN_09_07_2010 8.359 4.56E-04 DIN
DIN_10_07_2010 0.004 4.56E-04 DIN
DIN_11_07_2010 1.421 4.56E-04 DIN
DIN_12_07_2010 0.004 4.56E-04 DIN
DIN_13_07_2010 4.995 4.56E-04 DIN
DIN_14_07_2010 1.305 4.56E-04 DIN
DIN_15_07_2010 7.198 4.56E-04 DIN
DIN_16_07_2010 1.625 4.56E-04 DIN
DIN_17_07_2010 0.004 4.56E-04 DIN
DIN_18_07_2010 0.004 4.56E-04 DIN
DIN_19_07_2010 7.712 4.56E-04 DIN
DIN_20_07_2010 0.004 4.56E-04 DIN
DIN_21_07_2010 2.406 4.56E-04 DIN
DIN_22_07_2010 8.563 4.56E-04 DIN
DIN_23_07_2010 0.117 4.56E-04 DIN
DIN_24_07_2010 0.004 4.56E-04 DIN
DIN_25_07_2010 4.736 4.56E-04 DIN
DIN_26_07_2010 0.004 4.56E-04 DIN
DIN_27_07_2010 8.092 4.56E-04 DIN
DIN_28_07_2010 2.424 4.56E-04 DIN
DIN_29_07_2010 0.316 4.56E-04 DIN
DIN_30_07_2010 2.281 4.56E-04 DIN
DIN_31_07_2010 4.452 4.56E-04 DIN
DIN_01_08_2010 2.356 4.56E-04 DIN
DIN_02_08_2010 0.004 4.56E-04 DIN
DIN_03_08_2010 4.685 4.56E-04 DIN
DIN_04_08_2010 0.004 4.56E-04 DIN
DIN_05_08_2010 1.514 4.56E-04 DIN
DIN_06_08_2010 3.369 4.56E-04 DIN
DIN_07_08_2010 0.004 4.56E-04 DIN
DIN_08_08_2010 0.004 4.56E-04 DIN
DIN_09_08_2010 4.562 4.56E-04 DIN
DIN_10_08_2010 0.004 4.56E-04 DIN
DIN_11_08_2010 20.233 4.56E-04 DIN
DIN_12_08_2010 39.050 4.56E-04 DIN
DIN_13_08_2010 59.962 4.56E-04 DIN
DIN_14_08_2010 71.011 4.56E-04 DIN
DIN_15_08_2010 57.284 4.56E-04 DIN
DIN_16_08_2010 49.328 4.56E-04 DIN
DIN_17_08_2010 34.430 4.56E-04 DIN
DIN_18_08_2010 32.022 4.56E-04 DIN
DIN_19_08_2010 22.785 4.56E-04 DIN
DIN_20_08_2010 14.229 4.56E-04 DIN
DIN_21_08_2010 23.485 4.56E-04 DIN
DIN_22_08_2010 19.612 4.56E-04 DIN
DIN_23_08_2010 12.913 4.56E-04 DIN
DIN_24_08_2010 14.717 4.56E-04 DIN
DIN_25_08_2010 5.959 4.56E-04 DIN
DIN_26_08_2010 3.565 4.56E-04 DIN
DIN_27_08_2010 11.353 4.56E-04 DIN
DIN_28_08_2010 8.540 4.56E-04 DIN
DIN_29_08_2010 12.641 4.56E-04 DIN
DIN_30_08_2010 0.004 4.56E-04 DIN
DIN_31_08_2010 3.335 4.56E-04 DIN
DIN_01_09_2010 6.186 4.56E-04 DIN
DIN_02_09_2010 2.063 4.56E-04 DIN
DIN_03_09_2010 4.233 4.56E-04 DIN
DIN_04_09_2010 0.004 4.56E-04 DIN
DIN_05_09_2010 10.538 4.56E-04 DIN
DIN_06_09_2010 6.501 4.56E-04 DIN
DIN_07_09_2010 3.215 4.56E-04 DIN
DIN_08_09_2010 5.719 4.56E-04 DIN
DIN_09_09_2010 5.021 4.56E-04 DIN
DIN_10_09_2010 2.008 4.56E-04 DIN
DIN_11_09_2010 6.760 4.56E-04 DIN
DIN_12_09_2010 0.004 4.56E-04 DIN
DIN_13_09_2010 0.004 4.56E-04 DIN
DIN_14_09_2010 0.004 4.56E-04 DIN
DIN_15_09_2010 2.446 4.56E-04 DIN
DIN_16_09_2010 6.694 4.56E-04 DIN
DIN_17_09_2010 0.004 4.56E-04 DIN
DIN_18_09_2010 0.004 4.56E-04 DIN
DIN_19_09_2010 0.594 4.56E-04 DIN
DIN_20_09_2010 11.755 4.56E-04 DIN
DIN_21_09_2010 27.951 4.56E-04 DIN
DIN_22_09_2010 35.897 4.56E-04 DIN
DIN_23_09_2010 40.797 4.56E-04 DIN
DIN_24_09_2010 42.890 4.56E-04 DIN
DIN_25_09_2010 37.001 4.56E-04 DIN
DIN_26_09_2010 39.361 4.56E-04 DIN
DIN_27_09_2010 42.230 4.56E-04 DIN
DIN_28_09_2010 33.374 4.56E-04 DIN
DIN_29_09_2010 25.430 4.56E-04 DIN
DIN_30_09_2010 370.466 4.56E-04 DIN
DIN_01_10_2010 343.272 4.56E-04 DIN
DIN_02_10_2010 236.425 4.56E-04 DIN
DIN_03_10_2010 150.862 4.56E-04 DIN
DIN_04_10_2010 87.876 4.56E-04 DIN
DIN_05_10_2010 74.765 4.56E-04 DIN
DIN_06_10_2010 44.675 4.56E-04 DIN
DIN_07_10_2010 40.791 4.56E-04 DIN
DIN_08_10_2010 32.124 4.56E-04 DIN
DIN_09_10_2010 19.628 4.56E-04 DIN
DIN_10_10_2010 17.831 4.56E-04 DIN
DIN_11_10_2010 7.448 4.56E-04 DIN
DIN_12_10_2010 2.280 4.56E-04 DIN
DIN_13_10_2010 37.052 4.56E-04 DIN
DIN_14_10_2010 53.331 4.56E-04 DIN
DIN_15_10_2010 76.370 4.56E-04 DIN
DIN_16_10_2010 69.208 4.56E-04 DIN
DIN_17_10_2010 64.600 4.56E-04 DIN
DIN_18_10_2010 64.457 4.56E-04 DIN
DIN_19_10_2010 58.176 4.56E-04 DIN
DIN_20_10_2010 45.712 4.56E-04 DIN
DIN_21_10_2010 64.976 4.56E-04 DIN
DIN_22_10_2010 66.046 4.56E-04 DIN
DIN_23_10_2010 75.416 4.56E-04 DIN
DIN_24_10_2010 72.387 4.56E-04 DIN
DIN_25_10_2010 69.277 4.56E-04 DIN
DIN_26_10_2010 61.252 4.56E-04 DIN
DIN_27_10_2010 54.843 4.56E-04 DIN
DIN_28_10_2010 55.936 4.56E-04 DIN
DIN_29_10_2010 39.870 4.56E-04 DIN
DIN_30_10_2010 52.587 4.56E-04 DIN
DIN_31_10_2010 41.559 4.56E-04 DIN
DIN_01_11_2010 34.260 4.56E-04 DIN
DIN_02_11_2010 30.720 4.56E-04 DIN
DIN_03_11_2010 28.310 4.56E-04 DIN
DIN_04_11_2010 35.539 4.56E-04 DIN
DIN_05_11_2010 28.544 4.56E-04 DIN
DIN_06_11_2010 30.636 4.56E-04 DIN
DIN_07_11_2010 31.104 4.56E-04 DIN
DIN_08_11_2010 23.164 4.56E-04 DIN
DIN_09_11_2010 33.111 4.56E-04 DIN
DIN_10_11_2010 29.864 4.56E-04 DIN
DIN_11_11_2010 22.450 4.56E-04 DIN
DIN_12_11_2010 26.951 4.56E-04 DIN
DIN_13_11_2010 24.448 4.56E-04 DIN
DIN_14_11_2010 17.700 4.56E-04 DIN
DIN_15_11_2010 46.652 4.56E-04 DIN
DIN_16_11_2010 104.883 4.56E-04 DIN
DIN_17_11_2010 102.078 4.56E-04 DIN
DIN_18_11_2010 75.572 4.56E-04 DIN
DIN_19_11_2010 334.073 4.56E-04 DIN
DIN_20_11_2010 1,455.230 4.56E-04 DIN
DIN_21_11_2010 1,659.693 4.56E-04 DIN
DIN_22_11_2010 1,551.948 4.56E-04 DIN
DIN_23_11_2010 1,315.994 4.56E-04 DIN
DIN_24_11_2010 1,269.742 4.56E-04 DIN
DIN_25_11_2010 737.020 4.56E-04 DIN
DIN_26_11_2010 394.750 4.56E-04 DIN
DIN_27_11_2010 212.344 4.56E-04 DIN
DIN_28_11_2010 110.791 4.56E-04 DIN
DIN_29_11_2010 73.383 4.56E-04 DIN
DIN_30_11_2010 511.692 4.56E-04 DIN
DIN_01_12_2010 1,856.673 4.56E-04 DIN
DIN_02_12_2010 1,201.999 4.56E-04 DIN
DIN_03_12_2010 4,302.527 4.56E-04 DIN
DIN_04_12_2010 2,355.236 4.56E-04 DIN
DIN_05_12_2010 1,029.108 4.56E-04 DIN
DIN_06_12_2010 486.246 4.56E-04 DIN
DIN_07_12_2010 702.630 4.56E-04 DIN
DIN_08_12_2010 514.482 4.56E-04 DIN
DIN_09_12_2010 306.949 4.56E-04 DIN
DIN_10_12_2010 184.321 4.56E-04 DIN
DIN_11_12_2010 99.576 4.56E-04 DIN
DIN_12_12_2010 97.233 4.56E-04 DIN
DIN_13_12_2010 142.720 4.56E-04 DIN
DIN_14_12_2010 142.023 4.56E-04 DIN
DIN_15_12_2010 103.301 4.56E-04 DIN
DIN_16_12_2010 69.177 4.56E-04 DIN
DIN_17_12_2010 39.636 4.56E-04 DIN
DIN_18_12_2010 32.608 4.56E-04 DIN
DIN_19_12_2010 20.191 4.56E-04 DIN
DIN_20_12_2010 19.288 4.56E-04 DIN
DIN_21_12_2010 25.275 4.56E-04 DIN
DIN_22_12_2010 42.489 4.56E-04 DIN
DIN_23_12_2010 55.255 4.56E-04 DIN
DIN_24_12_2010 1,075.345 4.56E-04 DIN
DIN_25_12_2010 2,434.087 4.56E-04 DIN
DIN_26_12_2010 6,207.289 4.56E-04 DIN
DIN_27_12_2010 3,189.383 4.56E-04 DIN
DIN_28_12_2010 2,213.207 4.56E-04 DIN
DIN_29_12_2010 1,221.641 4.56E-04 DIN
DIN_30_12_2010 1,791.872 4.56E-04 DIN
DIN_31_12_2010 1,080.956 4.56E-04 DIN
DIN_01_01_2011 556.973 4.56E-04 DIN
DIN_02_01_2011 302.221 4.56E-04 DIN
DIN_03_01_2011 568.371 4.56E-04 DIN
DIN_04_01_2011 657.451 4.56E-04 DIN
DIN_05_01_2011 450.667 4.56E-04 DIN
DIN_06_01_2011 332.347 4.56E-04 DIN
DIN_07_01_2011 909.129 4.56E-04 DIN
DIN_08_01_2011 694.282 4.56E-04 DIN
DIN_09_01_2011 401.147 4.56E-04 DIN
DIN_10_01_2011 221.221 4.56E-04 DIN
DIN_11_01_2011 123.435 4.56E-04 DIN
DIN_12_01_2011 77.132 4.56E-04 DIN
DIN_13_01_2011 51.115 4.56E-04 DIN
DIN_14_01_2011 40.936 4.56E-04 DIN
DIN_15_01_2011 31.243 4.56E-04 DIN
DIN_16_01_2011 33.442 4.56E-04 DIN
DIN_17_01_2011 26.760 4.56E-04 DIN
DIN_18_01_2011 15.770 4.56E-04 DIN
DIN_19_01_2011 85.975 4.56E-04 DIN
DIN_20_01_2011 156.358 4.56E-04 DIN
DIN_21_01_2011 149.560 4.56E-04 DIN
DIN_22_01_2011 116.396 4.56E-04 DIN
DIN_23_01_2011 82.209 4.56E-04 DIN
DIN_24_01_2011 50.229 4.56E-04 DIN
DIN_25_01_2011 32.646 4.56E-04 DIN
DIN_26_01_2011 24.522 4.56E-04 DIN
DIN_27_01_2011 15.191 4.56E-04 DIN
DIN_28_01_2011 9.262 4.56E-04 DIN
DIN_29_01_2011 5.382 4.56E-04 DIN
DIN_30_01_2011 15.291 4.56E-04 DIN
DIN_31_01_2011 1,284.906 4.56E-04 DIN
DIN_01_02_2011 1,152.616 4.56E-04 DIN
DIN_02_02_2011 651.269 4.56E-04 DIN
DIN_03_02_2011 995.562 4.56E-04 DIN
DIN_04_02_2011 746.604 4.56E-04 DIN
DIN_05_02_2011 410.555 4.56E-04 DIN
DIN_06_02_2011 464.102 4.56E-04 DIN
DIN_07_02_2011 337.991 4.56E-04 DIN
DIN_08_02_2011 203.275 4.56E-04 DIN
DIN_09_02_2011 126.501 4.56E-04 DIN
DIN_10_02_2011 88.903 4.56E-04 DIN
DIN_11_02_2011 184.446 4.56E-04 DIN
DIN_12_02_2011 191.638 4.56E-04 DIN
DIN_13_02_2011 168.189 4.56E-04 DIN
DIN_14_02_2011 125.674 4.56E-04 DIN
DIN_15_02_2011 95.066 4.56E-04 DIN
DIN_16_02_2011 195.424 4.56E-04 DIN
DIN_17_02_2011 192.344 4.56E-04 DIN
DIN_18_02_2011 127.772 4.56E-04 DIN
DIN_19_02_2011 93.536 4.56E-04 DIN
DIN_20_02_2011 62.591 4.56E-04 DIN
DIN_21_02_2011 35.491 4.56E-04 DIN
DIN_22_02_2011 33.882 4.56E-04 DIN
DIN_23_02_2011 45.693 4.56E-04 DIN
DIN_24_02_2011 53.494 4.56E-04 DIN
DIN_25_02_2011 56.173 4.56E-04 DIN
DIN_26_02_2011 26.108 4.56E-04 DIN
DIN_27_02_2011 22.580 4.56E-04 DIN
DIN_28_02_2011 15.172 4.56E-04 DIN
DIN_01_03_2011 7.704 4.56E-04 DIN
DIN_02_03_2011 21.174 4.56E-04 DIN
DIN_03_03_2011 7.717 4.56E-04 DIN
DIN_04_03_2011 15.789 4.56E-04 DIN
DIN_05_03_2011 3.405 4.56E-04 DIN
DIN_06_03_2011 7.694 4.56E-04 DIN
DIN_07_03_2011 27.505 4.56E-04 DIN
DIN_08_03_2011 54.635 4.56E-04 DIN
DIN_09_03_2011 62.905 4.56E-04 DIN
DIN_10_03_2011 45.921 4.56E-04 DIN
DIN_11_03_2011 41.602 4.56E-04 DIN
DIN_12_03_2011 32.332 4.56E-04 DIN
DIN_13_03_2011 212.167 4.56E-04 DIN
DIN_14_03_2011 939.165 4.56E-04 DIN
DIN_15_03_2011 3,852.308 4.56E-04 DIN
DIN_16_03_2011 1,980.044 4.56E-04 DIN
DIN_17_03_2011 824.070 4.56E-04 DIN
DIN_18_03_2011 393.730 4.56E-04 DIN
DIN_19_03_2011 198.330 4.56E-04 DIN
DIN_20_03_2011 141.277 4.56E-04 DIN
DIN_21_03_2011 128.674 4.56E-04 DIN
DIN_22_03_2011 109.048 4.56E-04 DIN
DIN_23_03_2011 88.858 4.56E-04 DIN
DIN_24_03_2011 58.852 4.56E-04 DIN
DIN_25_03_2011 841.063 4.56E-04 DIN
DIN_26_03_2011 929.385 4.56E-04 DIN
DIN_27_03_2011 519.286 4.56E-04 DIN
DIN_28_03_2011 448.476 4.56E-04 DIN
DIN_29_03_2011 807.867 4.56E-04 DIN
DIN_30_03_2011 1,631.253 4.56E-04 DIN
DIN_31_03_2011 3,808.062 4.56E-04 DIN
DIN_01_04_2011 1,863.401 4.56E-04 DIN
DIN_02_04_2011 1,955.330 4.56E-04 DIN
DIN_03_04_2011 1,110.489 4.56E-04 DIN
DIN_04_04_2011 762.914 4.56E-04 DIN
DIN_05_04_2011 435.808 4.56E-04 DIN
DIN_06_04_2011 249.273 4.56E-04 DIN
DIN_07_04_2011 138.443 4.56E-04 DIN
DIN_08_04_2011 84.829 4.56E-04 DIN
DIN_09_04_2011 54.588 4.56E-04 DIN
DIN_10_04_2011 37.700 4.56E-04 DIN
DIN_11_04_2011 27.822 4.56E-04 DIN
DIN_12_04_2011 17.603 4.56E-04 DIN
DIN_13_04_2011 23.888 4.56E-04 DIN
DIN_14_04_2011 1.156 4.56E-04 DIN
DIN_15_04_2011 11.446 4.56E-04 DIN
DIN_16_04_2011 12.680 4.56E-04 DIN
DIN_17_04_2011 0.004 4.56E-04 DIN
DIN_18_04_2011 9.783 4.56E-04 DIN
DIN_19_04_2011 10.348 4.56E-04 DIN
DIN_20_04_2011 0.004 4.56E-04 DIN
DIN_21_04_2011 24.199 4.56E-04 DIN
DIN_22_04_2011 5.208 4.56E-04 DIN
DIN_23_04_2011 0.004 4.56E-04 DIN
DIN_24_04_2011 0.004 4.56E-04 DIN
DIN_25_04_2011 7.691 4.56E-04 DIN
DIN_26_04_2011 6.738 4.56E-04 DIN
DIN_27_04_2011 5.736 4.56E-04 DIN
DIN_28_04_2011 3.787 4.56E-04 DIN
DIN_29_04_2011 1.529 4.56E-04 DIN
DIN_30_04_2011 6.752 4.56E-04 DIN
DIN_01_05_2011 7.989 4.56E-04 DIN
DIN_02_05_2011 6.814 4.56E-04 DIN
DIN_03_05_2011 5.834 4.56E-04 DIN
DIN_04_05_2011 2.616 4.56E-04 DIN
DIN_05_05_2011 3.932 4.56E-04 DIN
DIN_06_05_2011 1.754 4.56E-04 DIN
DIN_07_05_2011 7.170 4.56E-04 DIN
DIN_08_05_2011 1.270 4.56E-04 DIN
DIN_09_05_2011 6.469 4.56E-04 DIN
DIN_10_05_2011 3.020 4.56E-04 DIN
DIN_11_05_2011 10.171 4.56E-04 DIN
DIN_12_05_2011 13.776 4.56E-04 DIN
DIN_13_05_2011 3.936 4.56E-04 DIN
DIN_14_05_2011 0.004 4.56E-04 DIN
DIN_15_05_2011 6.309 4.56E-04 DIN
DIN_16_05_2011 2.067 4.56E-04 DIN
DIN_17_05_2011 3.887 4.56E-04 DIN
DIN_18_05_2011 1.983 4.56E-04 DIN
DIN_19_05_2011 0.004 4.56E-04 DIN
DIN_20_05_2011 3.323 4.56E-04 DIN
DIN_21_05_2011 3.976 4.56E-04 DIN
DIN_22_05_2011 6.470 4.56E-04 DIN
DIN_23_05_2011 0.004 4.56E-04 DIN
DIN_24_05_2011 14.467 4.56E-04 DIN
DIN_25_05_2011 13.915 4.56E-04 DIN
DIN_26_05_2011 25.222 4.56E-04 DIN
DIN_27_05_2011 28.217 4.56E-04 DIN
DIN_28_05_2011 19.416 4.56E-04 DIN
DIN_29_05_2011 16.421 4.56E-04 DIN
DIN_30_05_2011 9.873 4.56E-04 DIN
DIN_31_05_2011 10.790 4.56E-04 DIN
DIN_01_06_2011 11.736 4.56E-04 DIN
DIN_02_06_2011 20.014 4.56E-04 DIN
DIN_03_06_2011 11.819 4.56E-04 DIN
DIN_04_06_2011 5.403 4.56E-04 DIN
DIN_05_06_2011 9.385 4.56E-04 DIN
DIN_06_06_2011 14.754 4.56E-04 DIN
DIN_07_06_2011 2.905 4.56E-04 DIN
DIN_08_06_2011 10.665 4.56E-04 DIN
DIN_09_06_2011 0.004 4.56E-04 DIN
DIN_10_06_2011 9.211 4.56E-04 DIN
DIN_11_06_2011 13.963 4.56E-04 DIN
DIN_12_06_2011 10.783 4.56E-04 DIN
DIN_13_06_2011 22.270 4.56E-04 DIN
DIN_14_06_2011 10.158 4.56E-04 DIN
DIN_15_06_2011 14.471 4.56E-04 DIN
DIN_16_06_2011 18.540 4.56E-04 DIN
DIN_17_06_2011 24.569 4.56E-04 DIN
DIN_18_06_2011 8.310 4.56E-04 DIN
DIN_19_06_2011 13.553 4.56E-04 DIN
DIN_20_06_2011 15.330 4.56E-04 DIN
DIN_21_06_2011 9.614 4.56E-04 DIN
DIN_22_06_2011 0.004 4.56E-04 DIN
DIN_23_06_2011 17.669 4.56E-04 DIN
DIN_24_06_2011 2.891 4.56E-04 DIN
DIN_25_06_2011 0.004 4.56E-04 DIN
DIN_26_06_2011 1.571 4.56E-04 DIN
DIN_27_06_2011 0.004 4.56E-04 DIN
DIN_28_06_2011 0.004 4.56E-04 DIN
DIN_29_06_2011 4.190 4.56E-04 DIN
DIN_30_06_2011 3.784 4.56E-04 DIN
DIN_01_07_2011 1.026 4.56E-04 DIN
DIN_02_07_2011 11.482 4.56E-04 DIN
DIN_03_07_2011 9.374 4.56E-04 DIN
DIN_04_07_2011 12.089 4.56E-04 DIN
DIN_05_07_2011 0.004 4.56E-04 DIN
DIN_06_07_2011 0.004 4.56E-04 DIN
DIN_07_07_2011 2.628 4.56E-04 DIN
DIN_08_07_2011 1.654 4.56E-04 DIN
DIN_09_07_2011 1.235 4.56E-04 DIN
DIN_10_07_2011 5.094 4.56E-04 DIN
DIN_11_07_2011 1.527 4.56E-04 DIN
DIN_12_07_2011 6.040 4.56E-04 DIN
DIN_13_07_2011 1.721 4.56E-04 DIN
DIN_14_07_2011 3.642 4.56E-04 DIN
DIN_15_07_2011 13.007 4.56E-04 DIN
DIN_16_07_2011 0.004 4.56E-04 DIN
DIN_17_07_2011 0.772 4.56E-04 DIN
DIN_18_07_2011 0.004 4.56E-04 DIN
DIN_19_07_2011 5.137 4.56E-04 DIN
DIN_20_07_2011 0.004 4.56E-04 DIN
DIN_21_07_2011 7.905 4.56E-04 DIN
DIN_22_07_2011 0.004 4.56E-04 DIN
DIN_23_07_2011 5.791 4.56E-04 DIN
DIN_24_07_2011 7.006 4.56E-04 DIN
DIN_25_07_2011 1.277 4.56E-04 DIN
DIN_26_07_2011 0.945 4.56E-04 DIN
DIN_27_07_2011 0.004 4.56E-04 DIN
DIN_28_07_2011 0.004 4.56E-04 DIN
DIN_29_07_2011 0.151 4.56E-04 DIN
DIN_30_07_2011 5.986 4.56E-04 DIN
DIN_31_07_2011 6.011 4.56E-04 DIN
DIN_01_08_2011 0.004 4.56E-04 DIN
DIN_02_08_2011 0.004 4.56E-04 DIN
DIN_03_08_2011 7.986 4.56E-04 DIN
DIN_04_08_2011 0.004 4.56E-04 DIN
DIN_05_08_2011 0.004 4.56E-04 DIN
DIN_06_08_2011 9.479 4.56E-04 DIN
DIN_07_08_2011 0.004 4.56E-04 DIN
DIN_08_08_2011 0.513 4.56E-04 DIN
DIN_09_08_2011 5.446 4.56E-04 DIN
DIN_10_08_2011 0.004 4.56E-04 DIN
DIN_11_08_2011 4.172 4.56E-04 DIN
DIN_12_08_2011 4.307 4.56E-04 DIN
DIN_13_08_2011 7.943 4.56E-04 DIN
DIN_14_08_2011 0.004 4.56E-04 DIN
DIN_15_08_2011 0.004 4.56E-04 DIN
DIN_16_08_2011 7.979 4.56E-04 DIN
DIN_17_08_2011 3.226 4.56E-04 DIN
DIN_18_08_2011 8.307 4.56E-04 DIN
DIN_19_08_2011 0.004 4.56E-04 DIN
DIN_20_08_2011 0.004 4.56E-04 DIN
DIN_21_08_2011 0.004 4.56E-04 DIN
DIN_22_08_2011 0.004 4.56E-04 DIN
DIN_23_08_2011 0.004 4.56E-04 DIN
DIN_24_08_2011 0.004 4.56E-04 DIN
DIN_25_08_2011 0.004 4.56E-04 DIN
DIN_26_08_2011 0.004 4.56E-04 DIN
DIN_27_08_2011 0.004 4.56E-04 DIN
DIN_28_08_2011 0.642 4.56E-04 DIN
DIN_29_08_2011 3.739 4.56E-04 DIN
DIN_30_08_2011 6.661 4.56E-04 DIN
DIN_31_08_2011 3.896 4.56E-04 DIN
DIN_01_09_2011 11.306 4.56E-04 DIN
DIN_02_09_2011 0.004 4.56E-04 DIN
DIN_03_09_2011 17.254 4.56E-04 DIN
DIN_04_09_2011 0.004 4.56E-04 DIN
DIN_05_09_2011 5.500 4.56E-04 DIN
DIN_06_09_2011 6.670 4.56E-04 DIN
DIN_07_09_2011 0.004 4.56E-04 DIN
DIN_08_09_2011 1.957 4.56E-04 DIN
DIN_09_09_2011 0.004 4.56E-04 DIN
DIN_10_09_2011 5.606 4.56E-04 DIN
DIN_11_09_2011 6.748 4.56E-04 DIN
DIN_12_09_2011 10.585 4.56E-04 DIN
DIN_13_09_2011 1.286 4.56E-04 DIN
DIN_14_09_2011 0.004 4.56E-04 DIN
DIN_15_09_2011 0.004 4.56E-04 DIN
DIN_16_09_2011 0.004 4.56E-04 DIN
DIN_17_09_2011 0.004 4.56E-04 DIN
DIN_18_09_2011 9.896 4.56E-04 DIN
DIN_19_09_2011 0.004 4.56E-04 DIN
DIN_20_09_2011 0.004 4.56E-04 DIN
DIN_21_09_2011 0.004 4.56E-04 DIN
DIN_22_09_2011 6.232 4.56E-04 DIN
DIN_23_09_2011 3.713 4.56E-04 DIN
DIN_24_09_2011 1.392 4.56E-04 DIN
DIN_25_09_2011 7.729 4.56E-04 DIN
DIN_26_09_2011 0.101 4.56E-04 DIN
DIN_27_09_2011 0.555 4.56E-04 DIN
DIN_28_09_2011 9.244 4.56E-04 DIN
DIN_29_09_2011 2.534 4.56E-04 DIN
DIN_30_09_2011 2.093 4.56E-04 DIN
DIN_01_10_2011 0.004 4.56E-04 DIN
DIN_02_10_2011 4.387 4.56E-04 DIN
DIN_03_10_2011 1.220 4.56E-04 DIN
DIN_04_10_2011 0.004 4.56E-04 DIN
DIN_05_10_2011 0.004 4.56E-04 DIN
DIN_06_10_2011 12.774 4.56E-04 DIN
DIN_07_10_2011 0.687 4.56E-04 DIN
DIN_08_10_2011 0.004 4.56E-04 DIN
DIN_09_10_2011 0.004 4.56E-04 DIN
DIN_10_10_2011 0.004 4.56E-04 DIN
DIN_11_10_2011 1.215 4.56E-04 DIN
DIN_12_10_2011 6.477 4.56E-04 DIN
DIN_13_10_2011 1.825 4.56E-04 DIN
DIN_14_10_2011 2.352 4.56E-04 DIN
DIN_15_10_2011 3.135 4.56E-04 DIN
DIN_16_10_2011 0.004 4.56E-04 DIN
DIN_17_10_2011 0.004 4.56E-04 DIN
DIN_18_10_2011 13.260 4.56E-04 DIN
DIN_19_10_2011 7.302 4.56E-04 DIN
DIN_20_10_2011 7.907 4.56E-04 DIN
DIN_21_10_2011 11.817 4.56E-04 DIN
DIN_22_10_2011 2.520 4.56E-04 DIN
DIN_23_10_2011 13.412 4.56E-04 DIN
DIN_24_10_2011 3.090 4.56E-04 DIN
DIN_25_10_2011 9.748 4.56E-04 DIN
DIN_26_10_2011 0.004 4.56E-04 DIN
DIN_27_10_2011 15.546 4.56E-04 DIN
DIN_28_10_2011 0.004 4.56E-04 DIN
DIN_29_10_2011 5.090 4.56E-04 DIN
DIN_30_10_2011 0.004 4.56E-04 DIN
DIN_31_10_2011 8.647 4.56E-04 DIN
DIN_01_11_2011 7.275 4.56E-04 DIN
DIN_02_11_2011 1.688 4.56E-04 DIN
DIN_03_11_2011 5.847 4.56E-04 DIN
DIN_04_11_2011 5.533 4.56E-04 DIN
DIN_05_11_2011 3.596 4.56E-04 DIN
DIN_06_11_2011 0.162 4.56E-04 DIN
DIN_07_11_2011 0.004 4.56E-04 DIN
DIN_08_11_2011 2.448 4.56E-04 DIN
DIN_09_11_2011 0.004 4.56E-04 DIN
DIN_10_11_2011 0.004 4.56E-04 DIN
DIN_11_11_2011 8.381 4.56E-04 DIN
DIN_12_11_2011 0.538 4.56E-04 DIN
DIN_13_11_2011 2.614 4.56E-04 DIN
DIN_14_11_2011 0.316 4.56E-04 DIN
DIN_15_11_2011 0.422 4.56E-04 DIN
DIN_16_11_2011 6.438 4.56E-04 DIN
DIN_17_11_2011 6.762 4.56E-04 DIN
DIN_18_11_2011 0.004 4.56E-04 DIN
DIN_19_11_2011 3.722 4.56E-04 DIN
DIN_20_11_2011 6.062 4.56E-04 DIN
DIN_21_11_2011 0.004 4.56E-04 DIN
DIN_22_11_2011 4.245 4.56E-04 DIN
DIN_23_11_2011 7.913 4.56E-04 DIN
DIN_24_11_2011 0.004 4.56E-04 DIN
DIN_25_11_2011 0.004 4.56E-04 DIN
DIN_26_11_2011 0.004 4.56E-04 DIN
DIN_27_11_2011 0.004 4.56E-04 DIN
DIN_28_11_2011 0.004 4.56E-04 DIN
DIN_29_11_2011 0.004 4.56E-04 DIN
DIN_30_11_2011 1.804 4.56E-04 DIN
DIN_01_12_2011 0.051 4.56E-04 DIN
DIN_02_12_2011 0.004 4.56E-04 DIN
DIN_03_12_2011 11.956 4.56E-04 DIN
DIN_04_12_2011 1.231 4.56E-04 DIN
DIN_05_12_2011 7.631 4.56E-04 DIN
DIN_06_12_2011 7.249 4.56E-04 DIN
DIN_07_12_2011 13.559 4.56E-04 DIN
DIN_08_12_2011 36.290 4.56E-04 DIN
DIN_09_12_2011 35.918 4.56E-04 DIN
DIN_10_12_2011 39.026 4.56E-04 DIN
DIN_11_12_2011 78.690 4.56E-04 DIN
DIN_12_12_2011 85.521 4.56E-04 DIN
DIN_13_12_2011 86.630 4.56E-04 DIN
DIN_14_12_2011 88.138 4.56E-04 DIN
DIN_15_12_2011 71.724 4.56E-04 DIN
DIN_16_12_2011 48.745 4.56E-04 DIN
DIN_17_12_2011 54.749 4.56E-04 DIN
DIN_18_12_2011 39.404 4.56E-04 DIN
DIN_19_12_2011 26.008 4.56E-04 DIN
DIN_20_12_2011 37.928 4.56E-04 DIN
DIN_21_12_2011 33.061 4.56E-04 DIN
DIN_22_12_2011 26.076 4.56E-04 DIN
DIN_23_12_2011 18.663 4.56E-04 DIN
DIN_24_12_2011 21.923 4.56E-04 DIN
DIN_25_12_2011 16.176 4.56E-04 DIN
DIN_26_12_2011 3.820 4.56E-04 DIN
DIN_27_12_2011 18.863 4.56E-04 DIN
DIN_28_12_2011 14.230 4.56E-04 DIN
DIN_29_12_2011 125.034 4.56E-04 DIN
DIN_30_12_2011 203.954 4.56E-04 DIN
DIN_31_12_2011 203.269 4.56E-04 DIN
DIN_01_01_2012 173.442 4.56E-04 DIN
DIN_02_01_2012 142.706 4.56E-04 DIN
DIN_03_01_2012 127.830 4.56E-04 DIN
DIN_04_01_2012 85.380 4.56E-04 DIN
DIN_05_01_2012 73.842 4.56E-04 DIN
DIN_06_01_2012 74.566 4.56E-04 DIN
DIN_07_01_2012 51.524 4.56E-04 DIN
DIN_08_01_2012 35.349 4.56E-04 DIN
DIN_09_01_2012 34.298 4.56E-04 DIN
DIN_10_01_2012 25.289 4.56E-04 DIN
DIN_11_01_2012 21.179 4.56E-04 DIN
DIN_12_01_2012 27.498 4.56E-04 DIN
DIN_13_01_2012 18.738 4.56E-04 DIN
DIN_14_01_2012 21.541 4.56E-04 DIN
DIN_15_01_2012 67.450 4.56E-04 DIN
DIN_16_01_2012 147.678 4.56E-04 DIN
DIN_17_01_2012 162.655 4.56E-04 DIN
DIN_18_01_2012 138.451 4.56E-04 DIN
DIN_19_01_2012 96.973 4.56E-04 DIN
DIN_20_01_2012 64.266 4.56E-04 DIN
DIN_21_01_2012 50.518 4.56E-04 DIN
DIN_22_01_2012 39.087 4.56E-04 DIN
DIN_23_01_2012 26.076 4.56E-04 DIN
DIN_24_01_2012 56.972 4.56E-04 DIN
DIN_25_01_2012 55.403 4.56E-04 DIN
DIN_26_01_2012 55.349 4.56E-04 DIN
DIN_27_01_2012 59.554 4.56E-04 DIN
DIN_28_01_2012 77.697 4.56E-04 DIN
DIN_29_01_2012 221.271 4.56E-04 DIN
DIN_30_01_2012 244.014 4.56E-04 DIN
DIN_31_01_2012 203.575 4.56E-04 DIN
DIN_01_02_2012 142.249 4.56E-04 DIN
DIN_02_02_2012 211.186 4.56E-04 DIN
DIN_03_02_2012 860.167 4.56E-04 DIN
DIN_04_02_2012 1,017.703 4.56E-04 DIN
DIN_05_02_2012 619.819 4.56E-04 DIN
DIN_06_02_2012 327.756 4.56E-04 DIN
DIN_07_02_2012 179.934 4.56E-04 DIN
DIN_08_02_2012 98.955 4.56E-04 DIN
DIN_09_02_2012 70.993 4.56E-04 DIN
DIN_10_02_2012 29.709 4.56E-04 DIN
DIN_11_02_2012 34.477 4.56E-04 DIN
DIN_12_02_2012 17.221 4.56E-04 DIN
DIN_13_02_2012 10.545 4.56E-04 DIN
DIN_14_02_2012 12.245 4.56E-04 DIN
DIN_15_02_2012 0.004 4.56E-04 DIN
DIN_16_02_2012 2.300 4.56E-04 DIN
DIN_17_02_2012 4.216 4.56E-04 DIN
DIN_18_02_2012 0.004 4.56E-04 DIN
DIN_19_02_2012 0.004 4.56E-04 DIN
DIN_20_02_2012 9.272 4.56E-04 DIN
DIN_21_02_2012 0.004 4.56E-04 DIN
DIN_22_02_2012 5.521 4.56E-04 DIN
DIN_23_02_2012 0.004 4.56E-04 DIN
DIN_24_02_2012 13.579 4.56E-04 DIN
DIN_25_02_2012 280.859 4.56E-04 DIN
DIN_26_02_2012 2,227.224 4.56E-04 DIN
DIN_27_02_2012 1,939.992 4.56E-04 DIN
DIN_28_02_2012 989.129 4.56E-04 DIN
DIN_29_02_2012 529.765 4.56E-04 DIN
DIN_01_03_2012 273.744 4.56E-04 DIN
DIN_02_03_2012 157.020 4.56E-04 DIN
DIN_03_03_2012 88.441 4.56E-04 DIN
DIN_04_03_2012 48.934 4.56E-04 DIN
DIN_05_03_2012 36.886 4.56E-04 DIN
DIN_06_03_2012 29.183 4.56E-04 DIN
DIN_07_03_2012 27.588 4.56E-04 DIN
DIN_08_03_2012 17.115 4.56E-04 DIN
DIN_09_03_2012 7.837 4.56E-04 DIN
DIN_10_03_2012 11.935 4.56E-04 DIN
DIN_11_03_2012 13.086 4.56E-04 DIN
DIN_12_03_2012 9.822 4.56E-04 DIN
DIN_13_03_2012 0.004 4.56E-04 DIN
DIN_14_03_2012 9.786 4.56E-04 DIN
DIN_15_03_2012 46.606 4.56E-04 DIN
DIN_16_03_2012 1,178.491 4.56E-04 DIN
DIN_17_03_2012 1,426.506 4.56E-04 DIN
DIN_18_03_2012 3,462.681 4.56E-04 DIN
DIN_19_03_2012 4,302.220 4.56E-04 DIN
DIN_20_03_2012 5,088.905 4.56E-04 DIN
DIN_21_03_2012 9,490.645 4.56E-04 DIN
DIN_22_03_2012 3,406.058 4.56E-04 DIN
DIN_23_03_2012 1,222.059 4.56E-04 DIN
DIN_24_03_2012 1,143.536 4.56E-04 DIN
DIN_25_03_2012 655.325 4.56E-04 DIN
DIN_26_03_2012 408.895 4.56E-04 DIN
DIN_27_03_2012 228.324 4.56E-04 DIN
DIN_28_03_2012 140.227 4.56E-04 DIN
DIN_29_03_2012 76.298 4.56E-04 DIN
DIN_30_03_2012 49.238 4.56E-04 DIN
DIN_31_03_2012 22.483 4.56E-04 DIN
DIN_01_04_2012 31.083 4.56E-04 DIN
DIN_02_04_2012 4.228 4.56E-04 DIN
DIN_03_04_2012 4.887 4.56E-04 DIN
DIN_04_04_2012 6.431 4.56E-04 DIN
DIN_05_04_2012 6.139 4.56E-04 DIN
DIN_06_04_2012 4.598 4.56E-04 DIN
DIN_07_04_2012 1.960 4.56E-04 DIN
DIN_08_04_2012 7.600 4.56E-04 DIN
DIN_09_04_2012 0.004 4.56E-04 DIN
DIN_10_04_2012 2.672 4.56E-04 DIN
DIN_11_04_2012 0.775 4.56E-04 DIN
DIN_12_04_2012 3.823 4.56E-04 DIN
DIN_13_04_2012 5.954 4.56E-04 DIN
DIN_14_04_2012 5.729 4.56E-04 DIN
DIN_15_04_2012 1.319 4.56E-04 DIN
DIN_16_04_2012 4.202 4.56E-04 DIN
DIN_17_04_2012 8.329 4.56E-04 DIN
DIN_18_04_2012 11.130 4.56E-04 DIN
DIN_19_04_2012 10.830 4.56E-04 DIN
DIN_20_04_2012 8.708 4.56E-04 DIN
DIN_21_04_2012 3.102 4.56E-04 DIN
DIN_22_04_2012 5.285 4.56E-04 DIN
DIN_23_04_2012 0.004 4.56E-04 DIN
DIN_24_04_2012 4.662 4.56E-04 DIN
DIN_25_04_2012 2.120 4.56E-04 DIN
DIN_26_04_2012 3.689 4.56E-04 DIN
DIN_27_04_2012 4.368 4.56E-04 DIN
DIN_28_04_2012 111.320 4.56E-04 DIN
DIN_29_04_2012 218.589 4.56E-04 DIN
DIN_30_04_2012 302.100 4.56E-04 DIN
DIN_01_05_2012 329.906 4.56E-04 DIN
DIN_02_05_2012 331.810 4.56E-04 DIN
DIN_03_05_2012 309.860 4.56E-04 DIN
DIN_04_05_2012 284.970 4.56E-04 DIN
DIN_05_05_2012 241.320 4.56E-04 DIN
DIN_06_05_2012 209.629 4.56E-04 DIN
DIN_07_05_2012 172.890 4.56E-04 DIN
DIN_08_05_2012 154.510 4.56E-04 DIN
DIN_09_05_2012 128.659 4.56E-04 DIN
DIN_10_05_2012 108.873 4.56E-04 DIN
DIN_11_05_2012 93.054 4.56E-04 DIN
DIN_12_05_2012 80.319 4.56E-04 DIN
DIN_13_05_2012 84.171 4.56E-04 DIN
DIN_14_05_2012 64.115 4.56E-04 DIN
DIN_15_05_2012 67.805 4.56E-04 DIN
DIN_16_05_2012 57.590 4.56E-04 DIN
DIN_17_05_2012 43.079 4.56E-04 DIN
DIN_18_05_2012 46.706 4.56E-04 DIN
DIN_19_05_2012 49.089 4.56E-04 DIN
DIN_20_05_2012 42.824 4.56E-04 DIN
DIN_21_05_2012 38.870 4.56E-04 DIN
DIN_22_05_2012 26.662 4.56E-04 DIN
DIN_23_05_2012 38.074 4.56E-04 DIN
DIN_24_05_2012 27.634 4.56E-04 DIN
DIN_25_05_2012 57.189 4.56E-04 DIN
DIN_26_05_2012 111.172 4.56E-04 DIN
DIN_27_05_2012 122.328 4.56E-04 DIN
DIN_28_05_2012 124.589 4.56E-04 DIN
DIN_29_05_2012 103.110 4.56E-04 DIN
DIN_30_05_2012 96.910 4.56E-04 DIN
DIN_31_05_2012 82.683 4.56E-04 DIN
DIN_01_06_2012 71.366 4.56E-04 DIN
DIN_02_06_2012 214.443 4.56E-04 DIN
DIN_03_06_2012 296.328 4.56E-04 DIN
DIN_04_06_2012 288.143 4.56E-04 DIN
DIN_05_06_2012 230.259 4.56E-04 DIN
DIN_06_06_2012 165.259 4.56E-04 DIN
DIN_07_06_2012 121.949 4.56E-04 DIN
DIN_08_06_2012 77.567 4.56E-04 DIN
DIN_09_06_2012 54.477 4.56E-04 DIN
DIN_10_06_2012 46.063 4.56E-04 DIN
DIN_11_06_2012 26.826 4.56E-04 DIN
DIN_12_06_2012 30.842 4.56E-04 DIN
DIN_13_06_2012 22.526 4.56E-04 DIN
DIN_14_06_2012 13.370 4.56E-04 DIN
DIN_15_06_2012 11.975 4.56E-04 DIN
DIN_16_06_2012 11.376 4.56E-04 DIN
DIN_17_06_2012 13.639 4.56E-04 DIN
DIN_18_06_2012 2.454 4.56E-04 DIN
DIN_19_06_2012 5.302 4.56E-04 DIN
DIN_20_06_2012 11.808 4.56E-04 DIN
DIN_21_06_2012 9.903 4.56E-04 DIN
DIN_22_06_2012 2.660 4.56E-04 DIN
DIN_23_06_2012 0.004 4.56E-04 DIN
DIN_24_06_2012 13.635 4.56E-04 DIN
DIN_25_06_2012 13.881 4.56E-04 DIN
DIN_26_06_2012 17.791 4.56E-04 DIN
DIN_27_06_2012 21.041 4.56E-04 DIN
DIN_28_06_2012 13.091 4.56E-04 DIN
DIN_29_06_2012 17.715 4.56E-04 DIN
DIN_30_06_2012 15.363 4.56E-04 DIN
DIN_01_07_2012 17.262 4.56E-04 DIN
DIN_02_07_2012 8.420 4.56E-04 DIN
DIN_03_07_2012 0.377 4.56E-04 DIN
DIN_04_07_2012 4.946 4.56E-04 DIN
DIN_05_07_2012 9.819 4.56E-04 DIN
DIN_06_07_2012 0.004 4.56E-04 DIN
DIN_07_07_2012 2.514 4.56E-04 DIN
DIN_08_07_2012 0.004 4.56E-04 DIN
DIN_09_07_2012 8.739 4.56E-04 DIN
DIN_10_07_2012 1.176 4.56E-04 DIN
DIN_11_07_2012 17.525 4.56E-04 DIN
DIN_12_07_2012 26.624 4.56E-04 DIN
DIN_13_07_2012 475.313 4.56E-04 DIN
DIN_14_07_2012 567.623 4.56E-04 DIN
DIN_15_07_2012 713.347 4.56E-04 DIN
DIN_16_07_2012 595.471 4.56E-04 DIN
DIN_17_07_2012 401.866 4.56E-04 DIN
DIN_18_07_2012 387.517 4.56E-04 DIN
DIN_19_07_2012 312.197 4.56E-04 DIN
DIN_20_07_2012 195.362 4.56E-04 DIN
DIN_21_07_2012 128.560 4.56E-04 DIN
DIN_22_07_2012 77.459 4.56E-04 DIN
DIN_23_07_2012 55.094 4.56E-04 DIN
DIN_24_07_2012 30.385 4.56E-04 DIN
DIN_25_07_2012 26.589 4.56E-04 DIN
DIN_26_07_2012 21.842 4.56E-04 DIN
DIN_27_07_2012 6.842 4.56E-04 DIN
DIN_28_07_2012 12.209 4.56E-04 DIN
DIN_29_07_2012 3.320 4.56E-04 DIN
DIN_30_07_2012 16.986 4.56E-04 DIN
DIN_31_07_2012 6.038 4.56E-04 DIN
DIN_01_08_2012 4.699 4.56E-04 DIN
DIN_02_08_2012 2.236 4.56E-04 DIN
DIN_03_08_2012 12.646 4.56E-04 DIN
DIN_04_08_2012 0.004 4.56E-04 DIN
DIN_05_08_2012 3.094 4.56E-04 DIN
DIN_06_08_2012 2.340 4.56E-04 DIN
DIN_07_08_2012 15.087 4.56E-04 DIN
DIN_08_08_2012 0.001 4.56E-04 DIN
DIN_09_08_2012 11.086 4.56E-04 DIN
DIN_10_08_2012 0.004 4.56E-04 DIN
DIN_11_08_2012 0.004 4.56E-04 DIN
DIN_12_08_2012 0.004 4.56E-04 DIN
DIN_13_08_2012 0.004 4.56E-04 DIN
DIN_14_08_2012 4.435 4.56E-04 DIN
DIN_15_08_2012 0.418 4.56E-04 DIN
DIN_16_08_2012 0.004 4.56E-04 DIN
DIN_17_08_2012 0.004 4.56E-04 DIN
DIN_18_08_2012 7.617 4.56E-04 DIN
DIN_19_08_2012 0.004 4.56E-04 DIN
DIN_20_08_2012 2.064 4.56E-04 DIN
DIN_21_08_2012 10.402 4.56E-04 DIN
DIN_22_08_2012 7.662 4.56E-04 DIN
DIN_23_08_2012 6.713 4.56E-04 DIN
DIN_24_08_2012 9.394 4.56E-04 DIN
DIN_25_08_2012 15.805 4.56E-04 DIN
DIN_26_08_2012 15.589 4.56E-04 DIN
DIN_27_08_2012 18.130 4.56E-04 DIN
DIN_28_08_2012 19.147 4.56E-04 DIN
DIN_29_08_2012 8.201 4.56E-04 DIN
DIN_30_08_2012 20.715 4.56E-04 DIN
DIN_31_08_2012 16.385 4.56E-04 DIN
DIN_01_09_2012 7.665 4.56E-04 DIN
DIN_02_09_2012 18.923 4.56E-04 DIN
DIN_03_09_2012 5.023 4.56E-04 DIN
DIN_04_09_2012 11.013 4.56E-04 DIN
DIN_05_09_2012 9.998 4.56E-04 DIN
DIN_06_09_2012 14.937 4.56E-04 DIN
DIN_07_09_2012 1.571 4.56E-04 DIN
DIN_08_09_2012 0.004 4.56E-04 DIN
DIN_09_09_2012 12.468 4.56E-04 DIN
DIN_10_09_2012 7.122 4.56E-04 DIN
DIN_11_09_2012 11.484 4.56E-04 DIN
DIN_12_09_2012 10.492 4.56E-04 DIN
DIN_13_09_2012 7.709 4.56E-04 DIN
DIN_14_09_2012 0.004 4.56E-04 DIN
DIN_15_09_2012 5.790 4.56E-04 DIN
DIN_16_09_2012 9.254 4.56E-04 DIN
DIN_17_09_2012 10.751 4.56E-04 DIN
DIN_18_09_2012 0.004 4.56E-04 DIN
DIN_19_09_2012 0.004 4.56E-04 DIN
DIN_20_09_2012 0.004 4.56E-04 DIN
DIN_21_09_2012 4.419 4.56E-04 DIN
DIN_22_09_2012 6.597 4.56E-04 DIN
DIN_23_09_2012 0.004 4.56E-04 DIN
DIN_24_09_2012 0.004 4.56E-04 DIN
DIN_25_09_2012 12.310 4.56E-04 DIN
DIN_26_09_2012 5.407 4.56E-04 DIN
DIN_27_09_2012 5.449 4.56E-04 DIN
DIN_28_09_2012 8.882 4.56E-04 DIN
DIN_29_09_2012 8.233 4.56E-04 DIN
DIN_30_09_2012 0.004 4.56E-04 DIN
DIN_01_10_2012 0.004 4.56E-04 DIN
DIN_02_10_2012 0.004 4.56E-04 DIN
DIN_03_10_2012 8.426 4.56E-04 DIN
DIN_04_10_2012 3.127 4.56E-04 DIN
DIN_05_10_2012 0.004 4.56E-04 DIN
DIN_06_10_2012 0.004 4.56E-04 DIN
DIN_07_10_2012 0.004 4.56E-04 DIN